
  CDK     08132403543D

 64 67  0  0  0  0  0  0  0  0999 V2000
   -0.6839    3.9480   -1.8888 C   0  0  0  0  0  0  0  0  0  0  0  0
    0.2669    3.8972   -2.4486 H   0  0  0  0  0  0  0  0  0  0  0  0
   -1.2643    4.8423   -2.2073 H   0  0  0  0  0  0  0  0  0  0  0  0
   -1.3020    3.0683   -2.1738 H   0  0  0  0  0  0  0  0  0  0  0  0
   -0.4687    4.0125   -0.3942 C   0  0  0  0  0  0  0  0  0  0  0  0
   -1.3791    4.1471    0.2180 H   0  0  0  0  0  0  0  0  0  0  0  0
    0.7492    4.4191    0.2126 C   0  0  0  0  0  0  0  0  0  0  0  0
    1.6276    4.5428   -0.4445 H   0  0  0  0  0  0  0  0  0  0  0  0
    0.7103    5.2166    1.4976 C   0  0  0  0  0  0  0  0  0  0  0  0
    1.6784    5.2228    2.0332 H   0  0  0  0  0  0  0  0  0  0  0  0
    0.4658    6.2703    1.2422 H   0  0  0  0  0  0  0  0  0  0  0  0
   -0.0804    4.8373    2.1740 H   0  0  0  0  0  0  0  0  0  0  0  0
    1.5920    2.5882    1.3629 C   0  0  0  0  0  0  0  0  0  0  0  0
    1.2885    2.7793    2.4158 H   0  0  0  0  0  0  0  0  0  0  0  0
    2.6719    2.7043    1.1132 H   0  0  0  0  0  0  0  0  0  0  0  0
    0.3837    2.0938    0.0913 Ru  0  0  0  0  0  0  0  0  0  0  0  0
   -1.3621    2.0749    1.7614 Cl  0  0  0  0  0  0  0  0  0  0  0  0
    2.0704    2.0937   -1.6056 Cl  0  0  0  0  0  0  0  0  0  0  0  0
    0.1906   -0.2584   -0.0734 P   0  0  0  0  0  0  0  0  0  0  0  0
   -1.0397   -0.6423   -1.4277 C   0  0  0  0  0  0  0  0  0  0  0  0
   -1.1526   -1.7498   -1.4485 H   0  0  0  0  0  0  0  0  0  0  0  0
   -2.4110   -0.0246   -1.0953 C   0  0  0  0  0  0  0  0  0  0  0  0
   -2.7873   -0.4035   -0.1240 H   0  0  0  0  0  0  0  0  0  0  0  0
   -2.2971    1.0734   -0.9542 H   0  0  0  0  0  0  0  0  0  0  0  0
   -2.9094    0.1739   -3.5748 C   0  0  0  0  0  0  0  0  0  0  0  0
   -2.8031    1.2826   -3.5559 H   0  0  0  0  0  0  0  0  0  0  0  0
   -3.6467   -0.0568   -4.3716 H   0  0  0  0  0  0  0  0  0  0  0  0
   -0.4431   -1.1011    1.4708 C   0  0  0  0  0  0  0  0  0  0  0  0
   -1.3673   -0.5268    1.6984 H   0  0  0  0  0  0  0  0  0  0  0  0
    1.7151   -1.1987   -0.4936 C   0  0  0  0  0  0  0  0  0  0  0  0
   -0.5207   -0.1710   -2.7976 C   0  0  0  0  0  0  0  0  0  0  0  0
   -0.3024    0.9177   -2.7546 H   0  0  0  0  0  0  0  0  0  0  0  0
    0.4505   -0.6518   -3.0287 H   0  0  0  0  0  0  0  0  0  0  0  0
   -1.5491   -0.4555   -3.9000 C   0  0  0  0  0  0  0  0  0  0  0  0
   -1.1665   -0.0815   -4.8721 H   0  0  0  0  0  0  0  0  0  0  0  0
   -1.6738   -1.5567   -4.0136 H   0  0  0  0  0  0  0  0  0  0  0  0
   -3.4252   -0.3049   -2.2122 C   0  0  0  0  0  0  0  0  0  0  0  0
   -3.6224   -1.4001   -2.2604 H   0  0  0  0  0  0  0  0  0  0  0  0
   -4.3937    0.1777   -1.9664 H   0  0  0  0  0  0  0  0  0  0  0  0
    0.5392   -0.8711    2.6307 C   0  0  0  0  0  0  0  0  0  0  0  0
    1.5161   -1.3465    2.3886 H   0  0  0  0  0  0  0  0  0  0  0  0
    0.7141    0.2170    2.7484 H   0  0  0  0  0  0  0  0  0  0  0  0
   -0.7697   -2.5909    1.2968 C   0  0  0  0  0  0  0  0  0  0  0  0
    0.1515   -3.1415    1.0047 H   0  0  0  0  0  0  0  0  0  0  0  0
   -1.5081   -2.7416    0.4818 H   0  0  0  0  0  0  0  0  0  0  0  0
   -0.3462   -2.9546    3.7730 C   0  0  0  0  0  0  0  0  0  0  0  0
    0.5925   -3.5220    3.5796 H   0  0  0  0  0  0  0  0  0  0  0  0
   -0.7725   -3.3616    4.7136 H   0  0  0  0  0  0  0  0  0  0  0  0
   -1.3175   -3.1791    2.6078 C   0  0  0  0  0  0  0  0  0  0  0  0
   -2.2913   -2.6942    2.8437 H   0  0  0  0  0  0  0  0  0  0  0  0
   -1.5263   -4.2612    2.4746 H   0  0  0  0  0  0  0  0  0  0  0  0
   -0.0130   -1.4662    3.9331 C   0  0  0  0  0  0  0  0  0  0  0  0
    0.7178   -1.3166    4.7550 H   0  0  0  0  0  0  0  0  0  0  0  0
   -0.9318   -0.9077    4.2196 H   0  0  0  0  0  0  0  0  0  0  0  0
    1.6569   -2.4315   -1.1748 C   0  0  0  0  0  0  0  0  0  0  0  0
    2.9614   -0.7152   -0.0514 C   0  0  0  0  0  0  0  0  0  0  0  0
    2.8277   -3.1686   -1.4062 C   0  0  0  0  0  0  0  0  0  0  0  0
    0.6949   -2.8242   -1.5334 H   0  0  0  0  0  0  0  0  0  0  0  0
    3.0133    0.2607    0.4488 H   0  0  0  0  0  0  0  0  0  0  0  0
    4.1276   -1.4603   -0.2725 C   0  0  0  0  0  0  0  0  0  0  0  0
    4.0641   -2.6865   -0.9516 C   0  0  0  0  0  0  0  0  0  0  0  0
    5.0951   -1.0708    0.0755 H   0  0  0  0  0  0  0  0  0  0  0  0
    2.7707   -4.1258   -1.9448 H   0  0  0  0  0  0  0  0  0  0  0  0
    4.9814   -3.2651   -1.1335 H   0  0  0  0  0  0  0  0  0  0  0  0
  1  2  1  0  0  0  0
  1  5  1  0  0  0  0
  1  3  1  0  0  0  0
  1  4  1  0  0  0  0
  5  6  1  0  0  0  0
  5 16  1  0  0  0  0
  5  7  1  0  0  0  0
  7  9  1  0  0  0  0
  7  8  1  0  0  0  0
  9 10  1  0  0  0  0
  9 11  1  0  0  0  0
  9 12  1  0  0  0  0
 13 14  1  0  0  0  0
 13 15  1  0  0  0  0
  7 13  1  0  0  0  0
 13 16  1  0  0  0  0
 16 17  1  0  0  0  0
 16 18  1  0  0  0  0
 19 20  1  0  0  0  0
 20 21  1  0  0  0  0
 20 22  1  0  0  0  0
 22 23  1  0  0  0  0
 22 24  1  0  0  0  0
 25 26  1  0  0  0  0
 25 37  1  0  0  0  0
 25 27  1  0  0  0  0
 19 28  1  0  0  0  0
 28 29  1  0  0  0  0
 19 30  1  0  0  0  0
 20 31  1  0  0  0  0
 31 34  1  0  0  0  0
 31 32  1  0  0  0  0
 31 33  1  0  0  0  0
 25 34  1  0  0  0  0
 34 35  1  0  0  0  0
 34 36  1  0  0  0  0
 22 37  1  0  0  0  0
 37 38  1  0  0  0  0
 37 39  1  0  0  0  0
 28 40  1  0  0  0  0
 40 41  1  0  0  0  0
 40 42  1  0  0  0  0
 28 43  1  0  0  0  0
 43 44  1  0  0  0  0
 43 45  1  0  0  0  0
 46 47  1  0  0  0  0
 46 49  1  0  0  0  0
 46 52  1  0  0  0  0
 46 48  1  0  0  0  0
 43 49  1  0  0  0  0
 49 50  1  0  0  0  0
 49 51  1  0  0  0  0
 40 52  1  0  0  0  0
 52 53  1  0  0  0  0
 52 54  1  0  0  0  0
 30 55  2  0  0  0  0
 30 56  1  0  0  0  0
 55 57  1  0  0  0  0
 57 61  2  0  0  0  0
 55 58  1  0  0  0  0
 56 59  1  0  0  0  0
 56 60  2  0  0  0  0
 60 61  1  0  0  0  0
 60 62  1  0  0  0  0
 57 63  1  0  0  0  0
 61 64  1  0  0  0  0
 16 19  1  0  0  0  0
M  END
>  <DFT-ENERGY>
-2253.62927833

$$$$
