
  CDK     08132407463D

 58 62  0  0  0  0  0  0  0  0999 V2000
    1.1376    0.5910   -3.9542 H   0  0  0  0  0  0  0  0  0  0  0  0
    2.3613    0.7187   -3.9684 C   0  0  0  0  0  0  0  0  0  0  0  0
    2.2940    0.5501   -5.0680 H   0  0  0  0  0  0  0  0  0  0  0  0
    2.7789   -0.3396   -3.0067 C   0  0  0  0  0  0  0  0  0  0  0  0
    3.7219   -0.1822   -2.4568 H   0  0  0  0  0  0  0  0  0  0  0  0
    2.5779   -1.3817   -3.3104 H   0  0  0  0  0  0  0  0  0  0  0  0
    1.1940    0.7072   -2.1851 Ru  0  0  0  0  0  0  0  0  0  0  0  0
    2.4201    2.0528   -3.3710 C   0  0  0  0  0  0  0  0  0  0  0  0
    3.3001    2.3482   -2.7875 H   0  0  0  0  0  0  0  0  0  0  0  0
    1.8811    2.8663   -3.8859 H   0  0  0  0  0  0  0  0  0  0  0  0
    2.7018    1.6127   -0.5199 Cl  0  0  0  0  0  0  0  0  0  0  0  0
   -0.5495   -0.5501   -3.2787 Cl  0  0  0  0  0  0  0  0  0  0  0  0
    0.1998    0.0505   -0.0834 P   0  0  0  0  0  0  0  0  0  0  0  0
   -1.0462   -1.3499   -0.2016 C   0  0  0  0  0  0  0  0  0  0  0  0
   -1.6905   -1.0470   -1.0543 H   0  0  0  0  0  0  0  0  0  0  0  0
   -0.3296   -2.6565   -0.5862 C   0  0  0  0  0  0  0  0  0  0  0  0
    0.2872   -2.4925   -1.4915 H   0  0  0  0  0  0  0  0  0  0  0  0
    0.3572   -2.9494    0.2386 H   0  0  0  0  0  0  0  0  0  0  0  0
   -2.2566   -3.9850    0.3905 C   0  0  0  0  0  0  0  0  0  0  0  0
   -1.6438   -4.3549    1.2438 H   0  0  0  0  0  0  0  0  0  0  0  0
   -3.0148   -4.7689    0.1838 H   0  0  0  0  0  0  0  0  0  0  0  0
   -0.8150    1.5751    0.3295 C   0  0  0  0  0  0  0  0  0  0  0  0
   -1.7289    1.2468    0.8730 H   0  0  0  0  0  0  0  0  0  0  0  0
    1.2145   -0.4782    1.3501 C   0  0  0  0  0  0  0  0  0  0  0  0
   -1.9155   -1.5577    1.0480 C   0  0  0  0  0  0  0  0  0  0  0  0
   -1.2695   -1.8412    1.9067 H   0  0  0  0  0  0  0  0  0  0  0  0
   -2.4405   -0.6224    1.3336 H   0  0  0  0  0  0  0  0  0  0  0  0
   -2.9425   -2.6754    0.7993 C   0  0  0  0  0  0  0  0  0  0  0  0
   -3.5599   -2.8252    1.7096 H   0  0  0  0  0  0  0  0  0  0  0  0
   -3.6392   -2.3565   -0.0082 H   0  0  0  0  0  0  0  0  0  0  0  0
   -1.3492   -3.7780   -0.8284 C   0  0  0  0  0  0  0  0  0  0  0  0
   -1.9683   -3.5130   -1.7144 H   0  0  0  0  0  0  0  0  0  0  0  0
   -0.8198   -4.7196   -1.0834 H   0  0  0  0  0  0  0  0  0  0  0  0
   -1.2275    2.1371   -1.0510 C   0  0  0  0  0  0  0  0  0  0  0  0
   -0.2848    2.3669   -1.6336 H   0  0  0  0  0  0  0  0  0  0  0  0
   -1.7790    1.3815   -1.6439 H   0  0  0  0  0  0  0  0  0  0  0  0
   -0.0921    2.6462    1.1628 C   0  0  0  0  0  0  0  0  0  0  0  0
    0.8665    2.9006    0.6662 H   0  0  0  0  0  0  0  0  0  0  0  0
    0.1736    2.2503    2.1622 H   0  0  0  0  0  0  0  0  0  0  0  0
   -1.3257    4.4799   -0.0752 C   0  0  0  0  0  0  0  0  0  0  0  0
   -0.3948    4.8008   -0.5945 H   0  0  0  0  0  0  0  0  0  0  0  0
   -1.9577    5.3856    0.0339 H   0  0  0  0  0  0  0  0  0  0  0  0
   -0.9595    3.9057    1.2987 C   0  0  0  0  0  0  0  0  0  0  0  0
   -1.8935    3.6628    1.8559 H   0  0  0  0  0  0  0  0  0  0  0  0
   -0.4197    4.6625    1.9046 H   0  0  0  0  0  0  0  0  0  0  0  0
   -2.0439    3.4300   -0.9296 C   0  0  0  0  0  0  0  0  0  0  0  0
   -2.2702    3.8251   -1.9414 H   0  0  0  0  0  0  0  0  0  0  0  0
   -3.0239    3.1825   -0.4620 H   0  0  0  0  0  0  0  0  0  0  0  0
    2.4170   -1.1690    1.1025 C   0  0  0  0  0  0  0  0  0  0  0  0
    0.7594   -0.3301    2.6745 C   0  0  0  0  0  0  0  0  0  0  0  0
    3.1528   -1.7040    2.1675 C   0  0  0  0  0  0  0  0  0  0  0  0
    2.7739   -1.2654    0.0677 H   0  0  0  0  0  0  0  0  0  0  0  0
   -0.1829    0.1953    2.8825 H   0  0  0  0  0  0  0  0  0  0  0  0
    1.5075   -0.8556    3.7401 C   0  0  0  0  0  0  0  0  0  0  0  0
    2.7026   -1.5443    3.4882 C   0  0  0  0  0  0  0  0  0  0  0  0
    1.1497   -0.7267    4.7719 H   0  0  0  0  0  0  0  0  0  0  0  0
    4.0912   -2.2404    1.9654 H   0  0  0  0  0  0  0  0  0  0  0  0
    3.2872   -1.9560    4.3237 H   0  0  0  0  0  0  0  0  0  0  0  0
  1  2  1  0  0  0  0
  1  7  1  0  0  0  0
  2  3  1  0  0  0  0
  2  4  1  0  0  0  0
  4  5  1  0  0  0  0
  6  4  1  0  0  0  0
  7  8  1  0  0  0  0
  7  4  1  0  0  0  0
  8  2  1  0  0  0  0
  8  9  1  0  0  0  0
 10  8  1  0  0  0  0
  7 11  1  0  0  0  0
  7 12  1  0  0  0  0
 14 13  1  0  0  0  0
 15 14  1  0  0  0  0
 16 14  1  0  0  0  0
 17 16  1  0  0  0  0
 18 16  1  0  0  0  0
 19 20  1  0  0  0  0
 19 31  1  0  0  0  0
 21 19  1  0  0  0  0
 22 13  1  0  0  0  0
 23 22  1  0  0  0  0
 24 13  1  0  0  0  0
 25 14  1  0  0  0  0
 25 28  1  0  0  0  0
 26 25  1  0  0  0  0
 27 25  1  0  0  0  0
 28 19  1  0  0  0  0
 29 28  1  0  0  0  0
 30 28  1  0  0  0  0
 31 16  1  0  0  0  0
 32 31  1  0  0  0  0
 33 31  1  0  0  0  0
 34 22  1  0  0  0  0
 35 34  1  0  0  0  0
 36 34  1  0  0  0  0
 37 22  1  0  0  0  0
 38 37  1  0  0  0  0
 39 37  1  0  0  0  0
 40 41  1  0  0  0  0
 40 43  1  0  0  0  0
 40 46  1  0  0  0  0
 42 40  1  0  0  0  0
 43 37  1  0  0  0  0
 44 43  1  0  0  0  0
 45 43  1  0  0  0  0
 46 34  1  0  0  0  0
 47 46  1  0  0  0  0
 48 46  1  0  0  0  0
 49 24  2  0  0  0  0
 50 24  1  0  0  0  0
 51 49  1  0  0  0  0
 51 55  2  0  0  0  0
 52 49  1  0  0  0  0
 53 50  1  0  0  0  0
 54 50  2  0  0  0  0
 55 54  1  0  0  0  0
 56 54  1  0  0  0  0
 57 51  1  0  0  0  0
 58 55  1  0  0  0  0
  7 13  1  0  0  0  0
M  END
>  <DFT-ENERGY>
-2175.08189247

$$$$
