PhCyCyP-2_A2
  CDK     08122415123D

 72 76  0  0  0  0  0  0  0  0999 V2000
   -0.9551   -0.1122   -0.8061 Ru  0  0  0  0  0  0  0  0  0  0  0  0
   -2.7295   -0.2217   -2.1953 O   0  0  0  0  0  0  0  0  0  0  0  0
   -2.1055   -1.1183    0.1980 C   0  0  0  0  0  0  0  0  0  0  0  0
   -1.8551   -1.3963    1.2207 H   0  0  0  0  0  0  0  0  0  0  0  0
   -3.0123    0.5375   -3.4211 C   0  0  0  0  0  0  0  0  0  0  0  0
   -3.3707   -0.1833   -4.1860 H   0  0  0  0  0  0  0  0  0  0  0  0
   -1.6225    1.0766   -3.7356 C   0  0  0  0  0  0  0  0  0  0  0  0
   -1.5907    1.5799   -4.7058 H   0  0  0  0  0  0  0  0  0  0  0  0
   -1.2932    1.8008   -2.9653 H   0  0  0  0  0  0  0  0  0  0  0  0
   -0.8797    0.2545   -3.7490 H   0  0  0  0  0  0  0  0  0  0  0  0
   -4.0261    1.6199   -3.0939 C   0  0  0  0  0  0  0  0  0  0  0  0
   -3.7428    2.1289   -2.1517 H   0  0  0  0  0  0  0  0  0  0  0  0
   -4.0728    2.3857   -3.8744 H   0  0  0  0  0  0  0  0  0  0  0  0
   -5.0352    1.2224   -2.9436 H   0  0  0  0  0  0  0  0  0  0  0  0
   -3.6707   -1.0797   -1.6903 C   0  0  0  0  0  0  0  0  0  0  0  0
   -4.8161   -1.4998   -2.3433 C   0  0  0  0  0  0  0  0  0  0  0  0
   -5.0561   -1.1631   -3.3492 H   0  0  0  0  0  0  0  0  0  0  0  0
   -5.6644   -2.3848   -1.6858 C   0  0  0  0  0  0  0  0  0  0  0  0
   -6.5678   -2.7287   -2.1944 H   0  0  0  0  0  0  0  0  0  0  0  0
   -5.3858   -2.8402   -0.4005 C   0  0  0  0  0  0  0  0  0  0  0  0
   -6.0697   -3.5280    0.0939 H   0  0  0  0  0  0  0  0  0  0  0  0
   -4.2405   -2.4085    0.2411 C   0  0  0  0  0  0  0  0  0  0  0  0
   -4.0258   -2.7505    1.2524 H   0  0  0  0  0  0  0  0  0  0  0  0
   -3.3570   -1.5369   -0.3983 C   0  0  0  0  0  0  0  0  0  0  0  0
   -1.6902    2.0431   -0.2447 Cl  0  0  0  0  0  0  0  0  0  0  0  0
   -0.0508   -1.7244   -2.1326 Cl  0  0  0  0  0  0  0  0  0  0  0  0
    0.7135   -0.0591    0.6433 P   0  0  0  0  0  0  0  0  0  0  0  0
    0.3153    0.8570    2.2929 C   0  0  0  0  0  0  0  0  0  0  0  0
   -0.3706    1.7074    2.0201 H   0  0  0  0  0  0  0  0  0  0  0  0
   -0.4401   -0.1002    3.2247 C   0  0  0  0  0  0  0  0  0  0  0  0
   -1.3538   -0.4994    2.7294 H   0  0  0  0  0  0  0  0  0  0  0  0
    0.1843   -0.9777    3.4932 H   0  0  0  0  0  0  0  0  0  0  0  0
    0.3713    1.2255    5.2265 C   0  0  0  0  0  0  0  0  0  0  0  0
    1.0336    0.4145    5.5849 H   0  0  0  0  0  0  0  0  0  0  0  0
    0.0502    1.7805    6.1277 H   0  0  0  0  0  0  0  0  0  0  0  0
    2.1776    0.9234   -0.1221 C   0  0  0  0  0  0  0  0  0  0  0  0
    2.8875    1.2156    0.6873 H   0  0  0  0  0  0  0  0  0  0  0  0
    1.5026   -1.6593    1.2215 C   0  0  0  0  0  0  0  0  0  0  0  0
    1.5518    1.4400    2.9867 C   0  0  0  0  0  0  0  0  0  0  0  0
    2.2892    0.6441    3.2300 H   0  0  0  0  0  0  0  0  0  0  0  0
    2.0736    2.1667    2.3312 H   0  0  0  0  0  0  0  0  0  0  0  0
    1.1481    2.1575    4.2872 C   0  0  0  0  0  0  0  0  0  0  0  0
    2.0500    2.5437    4.7969 H   0  0  0  0  0  0  0  0  0  0  0  0
    0.5284    3.0435    4.0457 H   0  0  0  0  0  0  0  0  0  0  0  0
   -0.8504    0.6256    4.5176 C   0  0  0  0  0  0  0  0  0  0  0  0
   -1.5788    1.4262    4.2817 H   0  0  0  0  0  0  0  0  0  0  0  0
   -1.3743   -0.0764    5.1922 H   0  0  0  0  0  0  0  0  0  0  0  0
    1.6139    2.1875   -0.7864 C   0  0  0  0  0  0  0  0  0  0  0  0
    0.8737    1.9342   -1.5849 H   0  0  0  0  0  0  0  0  0  0  0  0
    1.0624    2.8256   -0.0637 H   0  0  0  0  0  0  0  0  0  0  0  0
    2.9206    0.0573   -1.1468 C   0  0  0  0  0  0  0  0  0  0  0  0
    2.2300   -0.2948   -1.9481 H   0  0  0  0  0  0  0  0  0  0  0  0
    3.3367   -0.8592   -0.6822 H   0  0  0  0  0  0  0  0  0  0  0  0
    3.5498    2.1597   -2.4267 C   0  0  0  0  0  0  0  0  0  0  0  0
    2.9091    1.9173   -3.2970 H   0  0  0  0  0  0  0  0  0  0  0  0
    4.3978    2.7468   -2.8252 H   0  0  0  0  0  0  0  0  0  0  0  0
    4.0644    0.8615   -1.7889 C   0  0  0  0  0  0  0  0  0  0  0  0
    4.8326    1.0959   -1.0283 H   0  0  0  0  0  0  0  0  0  0  0  0
    4.5689    0.2413   -2.5539 H   0  0  0  0  0  0  0  0  0  0  0  0
    2.7556    3.0028   -1.4191 C   0  0  0  0  0  0  0  0  0  0  0  0
    2.3407    3.8982   -1.9193 H   0  0  0  0  0  0  0  0  0  0  0  0
    3.4313    3.3796   -0.6283 H   0  0  0  0  0  0  0  0  0  0  0  0
    0.9580   -2.8751    0.8100 C   0  0  0  0  0  0  0  0  0  0  0  0
    2.6292   -1.6295    2.0482 C   0  0  0  0  0  0  0  0  0  0  0  0
    1.5550   -4.0757    1.2213 C   0  0  0  0  0  0  0  0  0  0  0  0
    0.0726   -2.9257    0.1602 H   0  0  0  0  0  0  0  0  0  0  0  0
    3.0573   -0.6848    2.4002 H   0  0  0  0  0  0  0  0  0  0  0  0
    3.2221   -2.8278    2.4570 C   0  0  0  0  0  0  0  0  0  0  0  0
    2.6860   -4.0521    2.0400 C   0  0  0  0  0  0  0  0  0  0  0  0
    4.1012   -2.8099    3.0982 H   0  0  0  0  0  0  0  0  0  0  0  0
    1.1363   -5.0260    0.8924 H   0  0  0  0  0  0  0  0  0  0  0  0
    3.1520   -4.9853    2.3546 H   0  0  0  0  0  0  0  0  0  0  0  0
  2  1  1  0  0  0  0
  3  1  2  0  0  0  0
  4  3  1  0  0  0  0
  5  2  1  0  0  0  0
  6  5  1  0  0  0  0
  7  5  1  0  0  0  0
  8  7  1  0  0  0  0
  9  7  1  0  0  0  0
 10  7  1  0  0  0  0
 11  5  1  0  0  0  0
 12 11  1  0  0  0  0
 13 11  1  0  0  0  0
 14 11  1  0  0  0  0
 15  2  1  0  0  0  0
 15 24  1  0  0  0  0
 16 15  2  0  0  0  0
 17 16  1  0  0  0  0
 18 16  1  0  0  0  0
 19 18  1  0  0  0  0
 20 18  2  0  0  0  0
 21 20  1  0  0  0  0
 22 20  1  0  0  0  0
 22 24  2  0  0  0  0
 23 22  1  0  0  0  0
 24  3  1  0  0  0  0
  1 25  1  0  0  0  0
  1 26  1  0  0  0  0
 28 27  1  0  0  0  0
 29 28  1  0  0  0  0
 30 28  1  0  0  0  0
 31 30  1  0  0  0  0
 32 30  1  0  0  0  0
 33 34  1  0  0  0  0
 33 45  1  0  0  0  0
 35 33  1  0  0  0  0
 36 27  1  0  0  0  0
 37 36  1  0  0  0  0
 38 27  1  0  0  0  0
 39 28  1  0  0  0  0
 39 42  1  0  0  0  0
 40 39  1  0  0  0  0
 41 39  1  0  0  0  0
 42 33  1  0  0  0  0
 43 42  1  0  0  0  0
 44 42  1  0  0  0  0
 45 30  1  0  0  0  0
 46 45  1  0  0  0  0
 47 45  1  0  0  0  0
 48 36  1  0  0  0  0
 49 48  1  0  0  0  0
 50 48  1  0  0  0  0
 51 36  1  0  0  0  0
 52 51  1  0  0  0  0
 53 51  1  0  0  0  0
 54 55  1  0  0  0  0
 54 57  1  0  0  0  0
 54 60  1  0  0  0  0
 56 54  1  0  0  0  0
 57 51  1  0  0  0  0
 58 57  1  0  0  0  0
 59 57  1  0  0  0  0
 60 48  1  0  0  0  0
 61 60  1  0  0  0  0
 62 60  1  0  0  0  0
 63 38  2  0  0  0  0
 64 38  1  0  0  0  0
 65 63  1  0  0  0  0
 65 69  2  0  0  0  0
 66 63  1  0  0  0  0
 67 64  1  0  0  0  0
 68 64  2  0  0  0  0
 69 68  1  0  0  0  0
 70 68  1  0  0  0  0
 71 65  1  0  0  0  0
 72 69  1  0  0  0  0
  1 27  1  0  0  0  0
M  END
> <FrozenCore-PM6_ENERGY>
315.337

> <RMSD_CONF_CG-CS>
0.282069

> <RMSD_CONF_GO-CS>
0.000000

> <UID>


> <DESCRIPTOR_DEFINITION_1>
desc1=( echo "1 * ( e( $hartree_to_kcalmol * ( ( $freeEnergyZ - $freeEnergyD ) - ( $freeEnergyX + 2*$G_Ethene - $freeEnergyD - 2*$G_Propene ) - $DDG_reference_HGII ) / $kT ) ) " | bc -l )

> <DESCRIPTOR_DEFINITION_2>
desc1=( echo "1 * ( e( $hartree_to_kcalmol * ( ( $freeEnergyZ - $freeEnergyD ) - ( $freeEnergyX + 2*$G_Ethene - $freeEnergyD - 2*$G_Propene ) - $DDG_reference_HGII ) / $kT ) ) " | bc -l )

> <DESCRIPTOR_DEFINITION_3>
desc1=( echo "1 * ( e( $hartree_to_kcalmol * ( ( $freeEnergyZ - $freeEnergyD ) - ( $freeEnergyX + 2*$G_Ethene - $freeEnergyD - 2*$G_Propene ) - $DDG_reference_HGII ) / $kT ) ) " | bc -l )

> <WEIGHT_DEFINITION_1>
w1=$( echo "1 / ( 1 + e( $hartree_to_kcalmol * ( ( ( $freeEnergyX + 2*$G_Ethene - $freeEnergyD - 2*$G_Propene ) ) - ( $DG_referenceProductionBarrier + $magnitude4 ) ) / $kT ) )" | bc -l )

> <WEIGHT_DEFINITION_2>
w1=$( echo "1 / ( 1 + e( $hartree_to_kcalmol * ( ( ( $freeEnergyX + 2*$G_Ethene - $freeEnergyD - 2*$G_Propene ) ) - ( $DG_referenceProductionBarrier + $magnitude4 ) ) / $kT ) )" | bc -l )

> <WEIGHT_DEFINITION_3>
w1=$( echo "1 / ( 1 + e( $hartree_to_kcalmol * ( ( ( $freeEnergyX + 2*$G_Ethene - $freeEnergyD - 2*$G_Propene ) ) - ( $DG_referenceProductionBarrier + $magnitude4 ) ) / $kT ) )" | bc -l )

> <WEIGHT_DEFINITION_4>
w1=$( echo "1 / ( 1 + e( $hartree_to_kcalmol * ( ( ( $freeEnergyX + 2*$G_Ethene - $freeEnergyD - 2*$G_Propene ) ) - ( $DG_referenceProductionBarrier + $magnitude4 ) ) / $kT ) )" | bc -l )

> <CALCULATION_OF_OVERALL_FITNESS>
fitness=$( echo "( $desc1 + $desc2 + $desc3 ) * ( $w1 * $w2 * $w3 * $w4 )" | bc -l )

> <freeEnergyA>
-2520.36681407

> <freeEnergyF>
-2520.34241736

> <freeEnergyE>
-2520.36681407

> <freeEnergyC>
-2175.09203047

> <freeEnergyL>
-1042.52371495

> <freeEnergyX>
-2253.62927836

> <freeEnergyZ>
-2175.08189168

> <freeEnergyD>
-2175.11635113

> <G_Propene>
-117.738020895

> <G_Ethene>
-78.4716324751

> <G_HoveydaProd>
-502.204109499

> <G_SIMes>
-924.27249048

> <G_HG_RuCl2_SIMes>
-2402.13728523

> <DG_referenceProductionBarrier>
0.01468968

> <DG_referencePrecursorStabilityHII>
-0.0052201621

> <DG_referencePrecursorStabilityHI>
0.0117775312

> <DDG_referencePrecursorStability>
.0169976933

> <DG_referenceSynt>
0.0226072217

> <hartree_to_kcalmol>
627.49467516

> <boltzmann_constant>
0.0000000000000000000000138066

> <avogadro_number>
602214000000000000000000

> <jmol_to_kcalmol>
0.00023901

> <temp>
313.15

> <kT>
.6223089948281258706000000000

> <magnitude1>
1.43290809

> <magnitude2>
2.86581618

> <magnitude3>
4.29872427

> <magnitude4>
5.73163236

> <DFT_IDENTIFIER>
1723541401416

> <DFT_MACHINE>
158.39.114.73

> <XTB_IDENTIFIER>
NREC

> <XTB_MACHINE>
NREC

> <DESCRIPTOR_1>
.00045968857520430489

> <DESCRIPTOR_2>
9.167596930438509432

> <DESCRIPTOR_3>
1.519676016722615400

> <WEIGHT_1>
.99999130073643980779

> <WEIGHT_2>
.53072001250973069065

> <WEIGHT_3>
.96164473009034045677

> <WEIGHT_4>
.99999999792825210410

> <FITNESS>
5.45458761909346018771

$$$$
