
  CDK     08142405123D

 91 94  0  0  0  0  0  0  0  0999 V2000
   -0.4140   -4.2711   -2.1491 C   0  0  0  0  0  0  0  0  0  0  0  0
    0.6176   -4.2893   -2.5424 H   0  0  0  0  0  0  0  0  0  0  0  0
   -0.9331   -5.2155   -2.4296 H   0  0  0  0  0  0  0  0  0  0  0  0
   -0.9550   -3.4419   -2.6425 H   0  0  0  0  0  0  0  0  0  0  0  0
   -0.4366   -4.1421   -0.6443 C   0  0  0  0  0  0  0  0  0  0  0  0
   -1.4356   -4.1799   -0.1685 H   0  0  0  0  0  0  0  0  0  0  0  0
    0.6288   -4.6099    0.1720 C   0  0  0  0  0  0  0  0  0  0  0  0
    1.5735   -4.8339   -0.3549 H   0  0  0  0  0  0  0  0  0  0  0  0
    0.3604   -5.3373    1.4677 C   0  0  0  0  0  0  0  0  0  0  0  0
    1.2649   -5.4336    2.0975 H   0  0  0  0  0  0  0  0  0  0  0  0
    0.0078   -6.3638    1.2271 H   0  0  0  0  0  0  0  0  0  0  0  0
   -0.4342   -4.8242    2.0444 H   0  0  0  0  0  0  0  0  0  0  0  0
    1.6142   -2.7861    1.2154 C   0  0  0  0  0  0  0  0  0  0  0  0
    1.3752   -2.9552    2.2863 H   0  0  0  0  0  0  0  0  0  0  0  0
    2.6610   -2.9573    0.8830 H   0  0  0  0  0  0  0  0  0  0  0  0
    0.3386   -2.2084    0.0264 Ru  0  0  0  0  0  0  0  0  0  0  0  0
   -1.2781   -2.3111    1.8170 Cl  0  0  0  0  0  0  0  0  0  0  0  0
    1.9994   -2.1648   -1.7138 Cl  0  0  0  0  0  0  0  0  0  0  0  0
    0.1751   -0.2111    0.0191 C   0  0  0  0  0  0  0  0  0  0  0  0
    0.7579    0.6837    0.8616 N   0  0  0  0  0  0  0  0  0  0  0  0
    0.3618    2.0969    0.5508 C   0  0  0  0  0  0  0  0  0  0  0  0
   -0.6301    1.9250   -0.6507 C   0  0  0  0  0  0  0  0  0  0  0  0
   -0.6194    0.4441   -0.8681 N   0  0  0  0  0  0  0  0  0  0  0  0
   -0.1932    2.4974    1.4248 H   0  0  0  0  0  0  0  0  0  0  0  0
   -0.2016    2.4109   -1.5526 H   0  0  0  0  0  0  0  0  0  0  0  0
    1.4217    0.2599    2.0752 C   0  0  0  0  0  0  0  0  0  0  0  0
    2.6703   -0.6367    4.4607 C   0  0  0  0  0  0  0  0  0  0  0  0
    2.7545   -0.2256    2.0303 C   0  0  0  0  0  0  0  0  0  0  0  0
    0.7098    0.2906    3.3007 C   0  0  0  0  0  0  0  0  0  0  0  0
    1.3537   -0.1487    4.4685 C   0  0  0  0  0  0  0  0  0  0  0  0
    3.3433   -0.6681    3.2317 C   0  0  0  0  0  0  0  0  0  0  0  0
    0.7887   -0.1293    5.4136 H   0  0  0  0  0  0  0  0  0  0  0  0
    4.3751   -1.0513    3.1928 H   0  0  0  0  0  0  0  0  0  0  0  0
    3.3236   -1.1193    5.7309 C   0  0  0  0  0  0  0  0  0  0  0  0
    2.7474   -1.9511    6.1865 H   0  0  0  0  0  0  0  0  0  0  0  0
    3.3740   -0.3110    6.4897 H   0  0  0  0  0  0  0  0  0  0  0  0
    4.3542   -1.4788    5.5483 H   0  0  0  0  0  0  0  0  0  0  0  0
    3.5948   -0.2560    0.7806 C   0  0  0  0  0  0  0  0  0  0  0  0
    4.0702    0.7308    0.6010 H   0  0  0  0  0  0  0  0  0  0  0  0
    3.0236   -0.5395   -0.1232 H   0  0  0  0  0  0  0  0  0  0  0  0
    4.4155   -0.9897    0.8945 H   0  0  0  0  0  0  0  0  0  0  0  0
   -0.7189    0.7501    3.3845 C   0  0  0  0  0  0  0  0  0  0  0  0
   -1.1622    0.4543    4.3533 H   0  0  0  0  0  0  0  0  0  0  0  0
   -1.3229    0.2876    2.5828 H   0  0  0  0  0  0  0  0  0  0  0  0
   -0.8055    1.8548    3.3048 H   0  0  0  0  0  0  0  0  0  0  0  0
   -1.1003   -0.2490   -2.0482 C   0  0  0  0  0  0  0  0  0  0  0  0
   -1.9935   -1.5741   -4.3969 C   0  0  0  0  0  0  0  0  0  0  0  0
   -0.3655   -0.1269   -3.2591 C   0  0  0  0  0  0  0  0  0  0  0  0
   -2.2760   -1.0448   -2.0021 C   0  0  0  0  0  0  0  0  0  0  0  0
   -2.6899   -1.6883   -3.1874 C   0  0  0  0  0  0  0  0  0  0  0  0
   -0.8300   -0.7865   -4.4053 C   0  0  0  0  0  0  0  0  0  0  0  0
   -3.6023   -2.3037   -3.1482 H   0  0  0  0  0  0  0  0  0  0  0  0
   -0.2455   -0.6935   -5.3337 H   0  0  0  0  0  0  0  0  0  0  0  0
   -2.4428   -2.3065   -5.6347 C   0  0  0  0  0  0  0  0  0  0  0  0
   -2.3579   -1.6694   -6.5376 H   0  0  0  0  0  0  0  0  0  0  0  0
   -3.4916   -2.6497   -5.5485 H   0  0  0  0  0  0  0  0  0  0  0  0
   -1.8109   -3.2031   -5.8113 H   0  0  0  0  0  0  0  0  0  0  0  0
    0.9048    0.6700   -3.3407 C   0  0  0  0  0  0  0  0  0  0  0  0
    0.7094    1.7629   -3.3241 H   0  0  0  0  0  0  0  0  0  0  0  0
    1.4421    0.4431   -4.2798 H   0  0  0  0  0  0  0  0  0  0  0  0
    1.5754    0.4171   -2.4994 H   0  0  0  0  0  0  0  0  0  0  0  0
   -3.1570   -1.2017   -0.7907 C   0  0  0  0  0  0  0  0  0  0  0  0
   -3.9187   -0.3947   -0.7522 H   0  0  0  0  0  0  0  0  0  0  0  0
   -2.5998   -1.2046    0.1628 H   0  0  0  0  0  0  0  0  0  0  0  0
   -3.7059   -2.1611   -0.8481 H   0  0  0  0  0  0  0  0  0  0  0  0
    1.5887    3.0515    0.3200 C   0  0  0  0  0  0  0  0  0  0  0  0
    2.4252    3.1391    1.6142 C   0  0  0  0  0  0  0  0  0  0  0  0
    3.1760    3.9488    1.5126 H   0  0  0  0  0  0  0  0  0  0  0  0
    2.9644    2.2069    1.8491 H   0  0  0  0  0  0  0  0  0  0  0  0
    1.7853    3.3814    2.4880 H   0  0  0  0  0  0  0  0  0  0  0  0
    2.4615    2.5885   -0.8570 C   0  0  0  0  0  0  0  0  0  0  0  0
    2.6685    1.5057   -0.8225 H   0  0  0  0  0  0  0  0  0  0  0  0
    3.4321    3.1245   -0.8416 H   0  0  0  0  0  0  0  0  0  0  0  0
    1.9817    2.8140   -1.8286 H   0  0  0  0  0  0  0  0  0  0  0  0
    1.1195    4.4852    0.0147 C   0  0  0  0  0  0  0  0  0  0  0  0
    2.0125    5.1257   -0.1324 H   0  0  0  0  0  0  0  0  0  0  0  0
    0.5326    4.9205    0.8475 H   0  0  0  0  0  0  0  0  0  0  0  0
    0.5167    4.5469   -0.9104 H   0  0  0  0  0  0  0  0  0  0  0  0
   -2.0752    2.5114   -0.4625 C   0  0  0  0  0  0  0  0  0  0  0  0
   -2.0330    4.0310   -0.2238 C   0  0  0  0  0  0  0  0  0  0  0  0
   -1.5831    4.5777   -1.0759 H   0  0  0  0  0  0  0  0  0  0  0  0
   -1.4830    4.3004    0.6970 H   0  0  0  0  0  0  0  0  0  0  0  0
   -3.0721    4.3991   -0.1050 H   0  0  0  0  0  0  0  0  0  0  0  0
   -2.8797    2.3020   -1.7627 C   0  0  0  0  0  0  0  0  0  0  0  0
   -2.3281    2.7006   -2.6395 H   0  0  0  0  0  0  0  0  0  0  0  0
   -3.8419    2.8490   -1.6948 H   0  0  0  0  0  0  0  0  0  0  0  0
   -3.1080    1.2439   -1.9703 H   0  0  0  0  0  0  0  0  0  0  0  0
   -2.7958    1.8733    0.7358 C   0  0  0  0  0  0  0  0  0  0  0  0
   -2.6892    0.7756    0.7535 H   0  0  0  0  0  0  0  0  0  0  0  0
   -3.8777    2.1129    0.6987 H   0  0  0  0  0  0  0  0  0  0  0  0
   -2.4083    2.2686    1.6944 H   0  0  0  0  0  0  0  0  0  0  0  0
  1  2  1  0  0  0  0
  1  5  1  0  0  0  0
  3  1  1  0  0  0  0
  4  1  1  0  0  0  0
  5  6  1  0  0  0  0
  5 16  1  0  0  0  0
  5  7  1  0  0  0  0
  7  9  1  0  0  0  0
  7  8  1  0  0  0  0
  9 10  1  0  0  0  0
 11  9  1  0  0  0  0
 12  9  1  0  0  0  0
 13 14  1  0  0  0  0
 13 15  1  0  0  0  0
 13  7  1  0  0  0  0
 16 13  1  0  0  0  0
 16 17  1  0  0  0  0
 16 18  1  0  0  0  0
 19 20  1  0  0  0  0
 19 23  1  0  0  0  0
 20 21  1  0  0  0  0
 21 24  1  0  0  0  0
 21 22  1  0  0  0  0
 22 25  1  0  0  0  0
 22 23  1  0  0  0  0
 26 29  2  0  0  0  0
 26 28  1  0  0  0  0
 27 30  2  0  0  0  0
 27 31  1  0  0  0  0
 28 31  2  0  0  0  0
 29 30  1  0  0  0  0
 30 32  1  0  0  0  0
 31 33  1  0  0  0  0
 20 26  1  0  0  0  0
 34 35  1  0  0  0  0
 34 36  1  0  0  0  0
 34 37  1  0  0  0  0
 27 34  1  0  0  0  0
 38 39  1  0  0  0  0
 38 40  1  0  0  0  0
 38 41  1  0  0  0  0
 28 38  1  0  0  0  0
 42 43  1  0  0  0  0
 42 44  1  0  0  0  0
 42 45  1  0  0  0  0
 29 42  1  0  0  0  0
 46 49  2  0  0  0  0
 46 48  1  0  0  0  0
 47 50  2  0  0  0  0
 47 51  1  0  0  0  0
 48 51  2  0  0  0  0
 49 50  1  0  0  0  0
 50 52  1  0  0  0  0
 51 53  1  0  0  0  0
 23 46  1  0  0  0  0
 54 55  1  0  0  0  0
 54 56  1  0  0  0  0
 54 57  1  0  0  0  0
 47 54  1  0  0  0  0
 58 59  1  0  0  0  0
 58 60  1  0  0  0  0
 58 61  1  0  0  0  0
 48 58  1  0  0  0  0
 62 63  1  0  0  0  0
 62 64  1  0  0  0  0
 62 65  1  0  0  0  0
 49 62  1  0  0  0  0
 66 67  1  0  0  0  0
 66 71  1  0  0  0  0
 66 75  1  0  0  0  0
 67 68  1  0  0  0  0
 67 69  1  0  0  0  0
 67 70  1  0  0  0  0
 71 72  1  0  0  0  0
 71 73  1  0  0  0  0
 71 74  1  0  0  0  0
 75 76  1  0  0  0  0
 75 77  1  0  0  0  0
 75 78  1  0  0  0  0
 21 66  1  0  0  0  0
 79 80  1  0  0  0  0
 79 84  1  0  0  0  0
 79 88  1  0  0  0  0
 80 81  1  0  0  0  0
 80 82  1  0  0  0  0
 80 83  1  0  0  0  0
 84 85  1  0  0  0  0
 84 86  1  0  0  0  0
 84 87  1  0  0  0  0
 88 89  1  0  0  0  0
 88 90  1  0  0  0  0
 88 91  1  0  0  0  0
 22 79  1  0  0  0  0
 16 19  1  0  0  0  0
M  END
>  <DFT-ENERGY>
-2449.50315369

$$$$
