tBuSIMes-5_A2
  CDK     08132410433D

 99103  0  0  0  0  0  0  0  0999 V2000
   -1.5382    1.0492    0.1835 Ru  0  0  0  0  0  0  0  0  0  0  0  0
   -3.3160    2.4384    0.1835 O   0  0  0  0  0  0  0  0  0  0  0  0
   -2.7484    0.0451   -0.7498 C   0  0  0  0  0  0  0  0  0  0  0  0
   -2.5156   -0.9776   -1.0427 H   0  0  0  0  0  0  0  0  0  0  0  0
   -3.5515    3.6642    0.9587 C   0  0  0  0  0  0  0  0  0  0  0  0
   -4.0253    4.3999    0.2719 H   0  0  0  0  0  0  0  0  0  0  0  0
   -2.1335    4.0568    1.3278 C   0  0  0  0  0  0  0  0  0  0  0  0
   -1.4763    4.0468    0.4328 H   0  0  0  0  0  0  0  0  0  0  0  0
   -2.0822    5.0514    1.7769 H   0  0  0  0  0  0  0  0  0  0  0  0
   -1.6946    3.3257    2.0446 H   0  0  0  0  0  0  0  0  0  0  0  0
   -4.4308    3.3095    2.1443 C   0  0  0  0  0  0  0  0  0  0  0  0
   -4.0718    2.3725    2.6160 H   0  0  0  0  0  0  0  0  0  0  0  0
   -4.4132    4.0860    2.9150 H   0  0  0  0  0  0  0  0  0  0  0  0
   -5.4725    3.1324    1.8572 H   0  0  0  0  0  0  0  0  0  0  0  0
   -4.3082    1.9334   -0.6149 C   0  0  0  0  0  0  0  0  0  0  0  0
   -5.4773    2.5864   -0.9637 C   0  0  0  0  0  0  0  0  0  0  0  0
   -5.6963    3.5915   -0.6104 H   0  0  0  0  0  0  0  0  0  0  0  0
   -6.3785    1.9289   -1.7947 C   0  0  0  0  0  0  0  0  0  0  0  0
   -7.3013    2.4375   -2.0817 H   0  0  0  0  0  0  0  0  0  0  0  0
   -6.1285    0.6436   -2.2663 C   0  0  0  0  0  0  0  0  0  0  0  0
   -6.8537    0.1491   -2.9101 H   0  0  0  0  0  0  0  0  0  0  0  0
   -4.9588    0.0020   -1.9060 C   0  0  0  0  0  0  0  0  0  0  0  0
   -4.7656   -1.0093   -2.2606 H   0  0  0  0  0  0  0  0  0  0  0  0
   -4.0233    0.6414   -1.0906 C   0  0  0  0  0  0  0  0  0  0  0  0
   -2.1588    0.4693    2.4522 Cl  0  0  0  0  0  0  0  0  0  0  0  0
   -0.7259    2.3905   -1.5000 Cl  0  0  0  0  0  0  0  0  0  0  0  0
    0.1471   -0.0355    0.1198 C   0  0  0  0  0  0  0  0  0  0  0  0
    0.3912   -1.3744   -0.1667 N   0  0  0  0  0  0  0  0  0  0  0  0
    1.8032   -1.8333    0.1452 C   0  0  0  0  0  0  0  0  0  0  0  0
    2.4339   -0.5511    0.7844 C   0  0  0  0  0  0  0  0  0  0  0  0
    1.3766    0.5008    0.5241 N   0  0  0  0  0  0  0  0  0  0  0  0
    1.7087   -2.6413    0.9226 H   0  0  0  0  0  0  0  0  0  0  0  0
    3.3664   -0.2517    0.2464 H   0  0  0  0  0  0  0  0  0  0  0  0
   -0.5546   -2.3351   -0.6793 C   0  0  0  0  0  0  0  0  0  0  0  0
   -2.1537   -4.4125   -1.6912 C   0  0  0  0  0  0  0  0  0  0  0  0
   -0.9245   -2.3362   -2.0484 C   0  0  0  0  0  0  0  0  0  0  0  0
   -1.0948   -3.3052    0.2027 C   0  0  0  0  0  0  0  0  0  0  0  0
   -1.8679   -4.3486   -0.3203 C   0  0  0  0  0  0  0  0  0  0  0  0
   -1.7045   -3.3923   -2.5398 C   0  0  0  0  0  0  0  0  0  0  0  0
   -2.2649   -5.1094    0.3487 H   0  0  0  0  0  0  0  0  0  0  0  0
   -1.9694   -3.4126   -3.5949 H   0  0  0  0  0  0  0  0  0  0  0  0
   -2.9598   -5.5496   -2.2289 C   0  0  0  0  0  0  0  0  0  0  0  0
   -3.9807   -5.5390   -1.8185 H   0  0  0  0  0  0  0  0  0  0  0  0
   -2.5145   -6.5186   -1.9614 H   0  0  0  0  0  0  0  0  0  0  0  0
   -3.0523   -5.5283   -3.3225 H   0  0  0  0  0  0  0  0  0  0  0  0
   -0.5549   -1.2139   -2.9591 C   0  0  0  0  0  0  0  0  0  0  0  0
   -0.7730   -0.2244   -2.4998 H   0  0  0  0  0  0  0  0  0  0  0  0
   -1.0924   -1.2406   -3.9146 H   0  0  0  0  0  0  0  0  0  0  0  0
    0.5273   -1.2120   -3.1888 H   0  0  0  0  0  0  0  0  0  0  0  0
   -0.9060   -3.1852    1.6766 C   0  0  0  0  0  0  0  0  0  0  0  0
   -1.3211   -4.0304    2.2371 H   0  0  0  0  0  0  0  0  0  0  0  0
   -1.4209   -2.2689    2.0426 H   0  0  0  0  0  0  0  0  0  0  0  0
    0.1531   -3.0750    1.9695 H   0  0  0  0  0  0  0  0  0  0  0  0
    1.7057    1.9069    0.6432 C   0  0  0  0  0  0  0  0  0  0  0  0
    2.5829    4.5839    0.9057 C   0  0  0  0  0  0  0  0  0  0  0  0
    2.4694    2.5222   -0.3882 C   0  0  0  0  0  0  0  0  0  0  0  0
    1.3187    2.6797    1.7613 C   0  0  0  0  0  0  0  0  0  0  0  0
    1.7717    4.0048    1.8841 C   0  0  0  0  0  0  0  0  0  0  0  0
    2.9177    3.8378   -0.2335 C   0  0  0  0  0  0  0  0  0  0  0  0
    1.4764    4.5853    2.7553 H   0  0  0  0  0  0  0  0  0  0  0  0
    3.5135    4.2973   -1.0192 H   0  0  0  0  0  0  0  0  0  0  0  0
    3.0720    5.9886    1.0482 C   0  0  0  0  0  0  0  0  0  0  0  0
    4.1395    6.0752    0.8034 H   0  0  0  0  0  0  0  0  0  0  0  0
    2.9397    6.3836    2.0635 H   0  0  0  0  0  0  0  0  0  0  0  0
    2.5277    6.6593    0.3658 H   0  0  0  0  0  0  0  0  0  0  0  0
    2.7750    1.8136   -1.6642 C   0  0  0  0  0  0  0  0  0  0  0  0
    3.3423    0.8812   -1.5027 H   0  0  0  0  0  0  0  0  0  0  0  0
    3.3443    2.4304   -2.3700 H   0  0  0  0  0  0  0  0  0  0  0  0
    1.8274    1.5440   -2.1700 H   0  0  0  0  0  0  0  0  0  0  0  0
    0.4190    2.1612    2.8269 C   0  0  0  0  0  0  0  0  0  0  0  0
    0.7235    2.4651    3.8352 H   0  0  0  0  0  0  0  0  0  0  0  0
    0.3368    1.0533    2.8336 H   0  0  0  0  0  0  0  0  0  0  0  0
   -0.6185    2.5412    2.6783 H   0  0  0  0  0  0  0  0  0  0  0  0
    2.6320   -2.4568   -1.0361 C   0  0  0  0  0  0  0  0  0  0  0  0
    1.9662   -3.7553   -1.5276 C   0  0  0  0  0  0  0  0  0  0  0  0
    2.6826   -4.3990   -2.0498 H   0  0  0  0  0  0  0  0  0  0  0  0
    1.1554   -3.5631   -2.2389 H   0  0  0  0  0  0  0  0  0  0  0  0
    1.5407   -4.3416   -0.7069 H   0  0  0  0  0  0  0  0  0  0  0  0
    2.8193   -1.4897   -2.2081 C   0  0  0  0  0  0  0  0  0  0  0  0
    1.8536   -1.1103   -2.5805 H   0  0  0  0  0  0  0  0  0  0  0  0
    3.3256   -1.9741   -3.0496 H   0  0  0  0  0  0  0  0  0  0  0  0
    3.4208   -0.6125   -1.9243 H   0  0  0  0  0  0  0  0  0  0  0  0
    4.0348   -2.8369   -0.5105 C   0  0  0  0  0  0  0  0  0  0  0  0
    4.6436   -3.2711   -1.3126 H   0  0  0  0  0  0  0  0  0  0  0  0
    3.9822   -3.5849    0.2877 H   0  0  0  0  0  0  0  0  0  0  0  0
    4.5870   -1.9707   -0.1319 H   0  0  0  0  0  0  0  0  0  0  0  0
    2.7956   -0.7489    2.3057 C   0  0  0  0  0  0  0  0  0  0  0  0
    3.7954   -1.9179    2.4475 C   0  0  0  0  0  0  0  0  0  0  0  0
    4.7313   -1.7201    1.9149 H   0  0  0  0  0  0  0  0  0  0  0  0
    3.3859   -2.8658    2.0829 H   0  0  0  0  0  0  0  0  0  0  0  0
    4.0555   -2.0747    3.5014 H   0  0  0  0  0  0  0  0  0  0  0  0
    3.5005    0.5070    2.8449 C   0  0  0  0  0  0  0  0  0  0  0  0
    4.2197    0.9171    2.1291 H   0  0  0  0  0  0  0  0  0  0  0  0
    4.0459    0.2925    3.7707 H   0  0  0  0  0  0  0  0  0  0  0  0
    2.7962    1.3087    3.0868 H   0  0  0  0  0  0  0  0  0  0  0  0
    1.5526   -1.0820    3.1395 C   0  0  0  0  0  0  0  0  0  0  0  0
    0.7366   -0.3487    2.9835 H   0  0  0  0  0  0  0  0  0  0  0  0
    1.7752   -1.0874    4.2109 H   0  0  0  0  0  0  0  0  0  0  0  0
    1.1320   -2.0650    2.8835 H   0  0  0  0  0  0  0  0  0  0  0  0
  2  1  1  0  0  0  0
  3  1  2  0  0  0  0
  4  3  1  0  0  0  0
  5  2  1  0  0  0  0
  6  5  1  0  0  0  0
  7  5  1  0  0  0  0
  8  7  1  0  0  0  0
  9  7  1  0  0  0  0
 10  7  1  0  0  0  0
 11  5  1  0  0  0  0
 12 11  1  0  0  0  0
 13 11  1  0  0  0  0
 14 11  1  0  0  0  0
 15  2  1  0  0  0  0
 15 24  1  0  0  0  0
 16 15  2  0  0  0  0
 17 16  1  0  0  0  0
 18 16  1  0  0  0  0
 19 18  1  0  0  0  0
 20 18  2  0  0  0  0
 21 20  1  0  0  0  0
 22 20  1  0  0  0  0
 22 24  2  0  0  0  0
 23 22  1  0  0  0  0
 24  3  1  0  0  0  0
  1 25  1  0  0  0  0
  1 26  1  0  0  0  0
 27 28  1  0  0  0  0
 27 31  1  0  0  0  0
 28 29  1  0  0  0  0
 29 32  1  0  0  0  0
 29 30  1  0  0  0  0
 30 33  1  0  0  0  0
 30 31  1  0  0  0  0
  1 27  1  0  0  0  0
 34 37  2  0  0  0  0
 34 36  1  0  0  0  0
 35 38  2  0  0  0  0
 35 39  1  0  0  0  0
 36 39  2  0  0  0  0
 37 38  1  0  0  0  0
 38 40  1  0  0  0  0
 39 41  1  0  0  0  0
 28 34  1  0  0  0  0
 42 43  1  0  0  0  0
 42 44  1  0  0  0  0
 42 45  1  0  0  0  0
 35 42  1  0  0  0  0
 46 47  1  0  0  0  0
 46 48  1  0  0  0  0
 46 49  1  0  0  0  0
 36 46  1  0  0  0  0
 50 51  1  0  0  0  0
 50 52  1  0  0  0  0
 50 53  1  0  0  0  0
 37 50  1  0  0  0  0
 54 57  2  0  0  0  0
 54 56  1  0  0  0  0
 55 58  2  0  0  0  0
 55 59  1  0  0  0  0
 56 59  2  0  0  0  0
 57 58  1  0  0  0  0
 58 60  1  0  0  0  0
 59 61  1  0  0  0  0
 31 54  1  0  0  0  0
 62 63  1  0  0  0  0
 62 64  1  0  0  0  0
 62 65  1  0  0  0  0
 55 62  1  0  0  0  0
 66 67  1  0  0  0  0
 66 68  1  0  0  0  0
 66 69  1  0  0  0  0
 56 66  1  0  0  0  0
 70 71  1  0  0  0  0
 70 72  1  0  0  0  0
 70 73  1  0  0  0  0
 57 70  1  0  0  0  0
 74 75  1  0  0  0  0
 74 79  1  0  0  0  0
 74 83  1  0  0  0  0
 75 76  1  0  0  0  0
 75 77  1  0  0  0  0
 75 78  1  0  0  0  0
 79 80  1  0  0  0  0
 79 81  1  0  0  0  0
 79 82  1  0  0  0  0
 83 84  1  0  0  0  0
 83 85  1  0  0  0  0
 83 86  1  0  0  0  0
 29 74  1  0  0  0  0
 87 88  1  0  0  0  0
 87 92  1  0  0  0  0
 87 96  1  0  0  0  0
 88 89  1  0  0  0  0
 88 90  1  0  0  0  0
 88 91  1  0  0  0  0
 92 93  1  0  0  0  0
 92 94  1  0  0  0  0
 92 95  1  0  0  0  0
 96 97  1  0  0  0  0
 96 98  1  0  0  0  0
 96 99  1  0  0  0  0
 30 87  1  0  0  0  0
M  END
> <FrozenCore-PM6_ENERGY>
-142.385

> <RMSD_CONF_CG-CS>
0.462702

> <RMSD_CONF_GO-CS>
0.000000

> <UID>


> <DESCRIPTOR_DEFINITION_1>
desc1=( echo "1 * ( e( $hartree_to_kcalmol * ( ( $freeEnergyZ - $freeEnergyD ) - ( $freeEnergyX + 2*$G_Ethene - $freeEnergyD - 2*$G_Propene ) - $DDG_reference_HGII ) / $kT ) ) " | bc -l )

> <DESCRIPTOR_DEFINITION_2>
desc1=( echo "1 * ( e( $hartree_to_kcalmol * ( ( $freeEnergyZ - $freeEnergyD ) - ( $freeEnergyX + 2*$G_Ethene - $freeEnergyD - 2*$G_Propene ) - $DDG_reference_HGII ) / $kT ) ) " | bc -l )

> <DESCRIPTOR_DEFINITION_3>
desc1=( echo "1 * ( e( $hartree_to_kcalmol * ( ( $freeEnergyZ - $freeEnergyD ) - ( $freeEnergyX + 2*$G_Ethene - $freeEnergyD - 2*$G_Propene ) - $DDG_reference_HGII ) / $kT ) ) " | bc -l )

> <WEIGHT_DEFINITION_1>
w1=$( echo "1 / ( 1 + e( $hartree_to_kcalmol * ( ( ( $freeEnergyX + 2*$G_Ethene - $freeEnergyD - 2*$G_Propene ) ) - ( $DG_referenceProductionBarrier + $magnitude4 ) ) / $kT ) )" | bc -l )

> <WEIGHT_DEFINITION_2>
w1=$( echo "1 / ( 1 + e( $hartree_to_kcalmol * ( ( ( $freeEnergyX + 2*$G_Ethene - $freeEnergyD - 2*$G_Propene ) ) - ( $DG_referenceProductionBarrier + $magnitude4 ) ) / $kT ) )" | bc -l )

> <WEIGHT_DEFINITION_3>
w1=$( echo "1 / ( 1 + e( $hartree_to_kcalmol * ( ( ( $freeEnergyX + 2*$G_Ethene - $freeEnergyD - 2*$G_Propene ) ) - ( $DG_referenceProductionBarrier + $magnitude4 ) ) / $kT ) )" | bc -l )

> <WEIGHT_DEFINITION_4>
w1=$( echo "1 / ( 1 + e( $hartree_to_kcalmol * ( ( ( $freeEnergyX + 2*$G_Ethene - $freeEnergyD - 2*$G_Propene ) ) - ( $DG_referenceProductionBarrier + $magnitude4 ) ) / $kT ) )" | bc -l )

> <CALCULATION_OF_OVERALL_FITNESS>
fitness=$( echo "( $desc1 + $desc2 + $desc3 ) * ( $w1 * $w2 * $w3 * $w4 )" | bc -l )

> <freeEnergyA>
-2716.21240111

> <freeEnergyF>
-2716.20386817

> <freeEnergyE>
-2716.21240111

> <freeEnergyC>
-2370.96942615

> <freeEnergyL>
-1238.36136873

> <freeEnergyX>
-2449.50315335

> <freeEnergyZ>
-2370.95442475

> <freeEnergyD>
-2370.99751762

> <G_Propene>
-117.738020895

> <G_Ethene>
-78.4716324751

> <G_HoveydaProd>
-502.204109499

> <G_SIMes>
-924.27249048

> <G_HG_RuCl2_SIMes>
-2402.13728523

> <DG_referenceProductionBarrier>
0.01468968

> <DG_referencePrecursorStabilityHII>
-0.0052201621

> <DG_referencePrecursorStabilityHI>
0.0117775312

> <DDG_referencePrecursorStability>
.0169976933

> <DG_referenceSynt>
0.0226072217

> <hartree_to_kcalmol>
627.49467516

> <boltzmann_constant>
0.0000000000000000000000138066

> <avogadro_number>
602214000000000000000000

> <jmol_to_kcalmol>
0.00023901

> <temp>
313.15

> <kT>
.6223089948281258706000000000

> <magnitude1>
1.43290809

> <magnitude2>
2.86581618

> <magnitude3>
4.29872427

> <magnitude4>
5.73163236

> <DFT_IDENTIFIER>
1723726031323

> <DFT_MACHINE>
158.39.114.73

> <XTB_IDENTIFIER>
NREC

> <XTB_MACHINE>
NREC

> <DESCRIPTOR_1>
.00177872380896319432

> <DESCRIPTOR_2>
10.009644584929216632

> <DESCRIPTOR_3>
0.0000000001

> <WEIGHT_1>
.98661313045688965772

> <WEIGHT_2>
.99875461880423065275

> <WEIGHT_3>
.99998661176372862260

> <WEIGHT_4>
.98199454379172157492

> <FITNESS>
9.68734522639309926960

$$$$
