
  CDK     08152404313D

 85 89  0  0  0  0  0  0  0  0999 V2000
   -2.0235    3.1546    1.7340 H   0  0  0  0  0  0  0  0  0  0  0  0
   -3.2416    3.1053    1.9012 C   0  0  0  0  0  0  0  0  0  0  0  0
   -3.1859    4.1532    2.2721 H   0  0  0  0  0  0  0  0  0  0  0  0
   -3.3541    1.9204    2.7987 C   0  0  0  0  0  0  0  0  0  0  0  0
   -4.2981    1.3532    2.7580 H   0  0  0  0  0  0  0  0  0  0  0  0
   -2.9000    2.0153    3.7996 H   0  0  0  0  0  0  0  0  0  0  0  0
   -2.0563    1.4478    1.2523 Ru  0  0  0  0  0  0  0  0  0  0  0  0
   -3.6206    2.7675    0.5273 C   0  0  0  0  0  0  0  0  0  0  0  0
   -4.5263    2.1751    0.3500 H   0  0  0  0  0  0  0  0  0  0  0  0
   -3.3408    3.4747   -0.2722 H   0  0  0  0  0  0  0  0  0  0  0  0
   -3.7083   -0.1446    0.4078 Cl  0  0  0  0  0  0  0  0  0  0  0  0
   -0.0835    2.3205    2.3326 Cl  0  0  0  0  0  0  0  0  0  0  0  0
   -1.0687   -0.3869    1.2465 C   0  0  0  0  0  0  0  0  0  0  0  0
   -0.6704   -1.0541    0.1255 N   0  0  0  0  0  0  0  0  0  0  0  0
    0.2489   -2.1918    0.4328 C   0  0  0  0  0  0  0  0  0  0  0  0
    0.1777   -2.2720    1.9884 C   0  0  0  0  0  0  0  0  0  0  0  0
   -0.6113   -1.0462    2.3405 N   0  0  0  0  0  0  0  0  0  0  0  0
   -0.1790   -3.1162   -0.0007 H   0  0  0  0  0  0  0  0  0  0  0  0
    1.1951   -2.1507    2.4100 H   0  0  0  0  0  0  0  0  0  0  0  0
   -1.1140   -0.7684   -1.2155 C   0  0  0  0  0  0  0  0  0  0  0  0
   -1.7680   -0.2957   -3.9410 C   0  0  0  0  0  0  0  0  0  0  0  0
   -0.8481    0.4933   -1.8008 C   0  0  0  0  0  0  0  0  0  0  0  0
   -1.7972   -1.7599   -1.9618 C   0  0  0  0  0  0  0  0  0  0  0  0
   -2.0892   -1.5084   -3.3131 C   0  0  0  0  0  0  0  0  0  0  0  0
   -1.1751    0.7012   -3.1514 C   0  0  0  0  0  0  0  0  0  0  0  0
   -2.6189   -2.2873   -3.8839 H   0  0  0  0  0  0  0  0  0  0  0  0
   -0.9554    1.6847   -3.5957 H   0  0  0  0  0  0  0  0  0  0  0  0
   -2.0557   -0.0706   -5.4033 C   0  0  0  0  0  0  0  0  0  0  0  0
   -1.2057   -0.4093   -6.0341 H   0  0  0  0  0  0  0  0  0  0  0  0
   -2.2211    1.0017   -5.6259 H   0  0  0  0  0  0  0  0  0  0  0  0
   -2.9505   -0.6345   -5.7327 H   0  0  0  0  0  0  0  0  0  0  0  0
   -0.3084    1.6366   -1.0040 C   0  0  0  0  0  0  0  0  0  0  0  0
   -1.1413    2.1307   -0.4046 H   0  0  0  0  0  0  0  0  0  0  0  0
    0.0523    2.4564   -1.6536 H   0  0  0  0  0  0  0  0  0  0  0  0
    0.4860    1.3745   -0.2866 H   0  0  0  0  0  0  0  0  0  0  0  0
   -2.3018   -3.0332   -1.3415 C   0  0  0  0  0  0  0  0  0  0  0  0
   -3.1203   -3.4549   -1.9546 H   0  0  0  0  0  0  0  0  0  0  0  0
   -2.6976   -2.8322   -0.3291 H   0  0  0  0  0  0  0  0  0  0  0  0
   -1.5202   -3.8199   -1.2614 H   0  0  0  0  0  0  0  0  0  0  0  0
   -0.7615   -0.5777    3.7022 C   0  0  0  0  0  0  0  0  0  0  0  0
   -1.0047    0.2965    6.3938 C   0  0  0  0  0  0  0  0  0  0  0  0
    0.3843   -0.1331    4.4113 C   0  0  0  0  0  0  0  0  0  0  0  0
   -2.0273   -0.6068    4.3388 C   0  0  0  0  0  0  0  0  0  0  0  0
   -2.1167   -0.1516    5.6688 C   0  0  0  0  0  0  0  0  0  0  0  0
    0.2384    0.2844    5.7430 C   0  0  0  0  0  0  0  0  0  0  0  0
   -3.1049   -0.1695    6.1552 H   0  0  0  0  0  0  0  0  0  0  0  0
    1.1333    0.6384    6.2785 H   0  0  0  0  0  0  0  0  0  0  0  0
   -1.1370    0.8001    7.8085 C   0  0  0  0  0  0  0  0  0  0  0  0
   -2.0977    0.4908    8.2635 H   0  0  0  0  0  0  0  0  0  0  0  0
   -1.0953    1.9099    7.8400 H   0  0  0  0  0  0  0  0  0  0  0  0
   -0.3140    0.4285    8.4514 H   0  0  0  0  0  0  0  0  0  0  0  0
    1.7524   -0.0693    3.7890 C   0  0  0  0  0  0  0  0  0  0  0  0
    2.2553   -1.0613    3.7801 H   0  0  0  0  0  0  0  0  0  0  0  0
    2.4020    0.6184    4.3619 H   0  0  0  0  0  0  0  0  0  0  0  0
    1.6941    0.3059    2.7525 H   0  0  0  0  0  0  0  0  0  0  0  0
   -3.2741   -1.1788    3.7183 C   0  0  0  0  0  0  0  0  0  0  0  0
   -3.3526   -2.2630    3.9473 H   0  0  0  0  0  0  0  0  0  0  0  0
   -3.3278   -1.0481    2.6233 H   0  0  0  0  0  0  0  0  0  0  0  0
   -4.1694   -0.6987    4.1576 H   0  0  0  0  0  0  0  0  0  0  0  0
    1.6829   -2.0289   -0.1951 C   0  0  0  0  0  0  0  0  0  0  0  0
    1.5976   -2.0142   -1.7364 C   0  0  0  0  0  0  0  0  0  0  0  0
    2.6181   -2.1213   -2.1573 H   0  0  0  0  0  0  0  0  0  0  0  0
    1.1653   -1.0790   -2.1327 H   0  0  0  0  0  0  0  0  0  0  0  0
    0.9850   -2.8558   -2.1193 H   0  0  0  0  0  0  0  0  0  0  0  0
    2.3934   -0.7576    0.2908 C   0  0  0  0  0  0  0  0  0  0  0  0
    1.7551    0.1399    0.1968 H   0  0  0  0  0  0  0  0  0  0  0  0
    3.3081   -0.5850   -0.3110 H   0  0  0  0  0  0  0  0  0  0  0  0
    2.7083   -0.8418    1.3474 H   0  0  0  0  0  0  0  0  0  0  0  0
    2.5572   -3.2375    0.1875 C   0  0  0  0  0  0  0  0  0  0  0  0
    3.5652   -3.1050   -0.2543 H   0  0  0  0  0  0  0  0  0  0  0  0
    2.1447   -4.1887   -0.2034 H   0  0  0  0  0  0  0  0  0  0  0  0
    2.6892   -3.3384    1.2817 H   0  0  0  0  0  0  0  0  0  0  0  0
   -0.3985   -3.6060    2.5844 C   0  0  0  0  0  0  0  0  0  0  0  0
    0.4993   -4.7877    2.1717 C   0  0  0  0  0  0  0  0  0  0  0  0
    1.5300   -4.6856    2.5661 H   0  0  0  0  0  0  0  0  0  0  0  0
    0.5566   -4.9154    1.0740 H   0  0  0  0  0  0  0  0  0  0  0  0
    0.0733   -5.7222    2.5892 H   0  0  0  0  0  0  0  0  0  0  0  0
   -0.3754   -3.5635    4.1276 C   0  0  0  0  0  0  0  0  0  0  0  0
    0.6121   -3.2316    4.5089 H   0  0  0  0  0  0  0  0  0  0  0  0
   -0.5625   -4.5833    4.5214 H   0  0  0  0  0  0  0  0  0  0  0  0
   -1.1375   -2.8918    4.5561 H   0  0  0  0  0  0  0  0  0  0  0  0
   -1.8227   -3.8927    2.0800 C   0  0  0  0  0  0  0  0  0  0  0  0
   -2.4608   -2.9918    2.0938 H   0  0  0  0  0  0  0  0  0  0  0  0
   -2.3025   -4.6619    2.7182 H   0  0  0  0  0  0  0  0  0  0  0  0
   -1.8127   -4.2894    1.0477 H   0  0  0  0  0  0  0  0  0  0  0  0
  1  2  1  0  0  0  0
  1  7  1  0  0  0  0
  2  3  1  0  0  0  0
  2  4  1  0  0  0  0
  4  5  1  0  0  0  0
  4  6  1  0  0  0  0
  7  8  1  0  0  0  0
  4  7  1  0  0  0  0
  2  8  1  0  0  0  0
  8  9  1  0  0  0  0
  8 10  1  0  0  0  0
  7 11  1  0  0  0  0
  7 12  1  0  0  0  0
 13 14  1  0  0  0  0
 13 17  1  0  0  0  0
 14 15  1  0  0  0  0
 15 18  1  0  0  0  0
 15 16  1  0  0  0  0
 16 19  1  0  0  0  0
 16 17  1  0  0  0  0
 20 23  2  0  0  0  0
 20 22  1  0  0  0  0
 21 24  2  0  0  0  0
 21 25  1  0  0  0  0
 22 25  2  0  0  0  0
 23 24  1  0  0  0  0
 24 26  1  0  0  0  0
 25 27  1  0  0  0  0
 14 20  1  0  0  0  0
 28 29  1  0  0  0  0
 28 30  1  0  0  0  0
 28 31  1  0  0  0  0
 21 28  1  0  0  0  0
 32 33  1  0  0  0  0
 32 34  1  0  0  0  0
 32 35  1  0  0  0  0
 22 32  1  0  0  0  0
 36 37  1  0  0  0  0
 36 38  1  0  0  0  0
 36 39  1  0  0  0  0
 23 36  1  0  0  0  0
 40 43  2  0  0  0  0
 40 42  1  0  0  0  0
 41 44  2  0  0  0  0
 41 45  1  0  0  0  0
 42 45  2  0  0  0  0
 43 44  1  0  0  0  0
 44 46  1  0  0  0  0
 45 47  1  0  0  0  0
 17 40  1  0  0  0  0
 48 49  1  0  0  0  0
 48 50  1  0  0  0  0
 48 51  1  0  0  0  0
 41 48  1  0  0  0  0
 52 53  1  0  0  0  0
 52 54  1  0  0  0  0
 52 55  1  0  0  0  0
 42 52  1  0  0  0  0
 56 57  1  0  0  0  0
 56 58  1  0  0  0  0
 56 59  1  0  0  0  0
 43 56  1  0  0  0  0
 60 61  1  0  0  0  0
 60 65  1  0  0  0  0
 60 69  1  0  0  0  0
 61 62  1  0  0  0  0
 61 63  1  0  0  0  0
 61 64  1  0  0  0  0
 65 66  1  0  0  0  0
 65 67  1  0  0  0  0
 65 68  1  0  0  0  0
 69 70  1  0  0  0  0
 69 71  1  0  0  0  0
 69 72  1  0  0  0  0
 15 60  1  0  0  0  0
 73 74  1  0  0  0  0
 73 78  1  0  0  0  0
 73 82  1  0  0  0  0
 74 75  1  0  0  0  0
 74 76  1  0  0  0  0
 74 77  1  0  0  0  0
 78 79  1  0  0  0  0
 78 80  1  0  0  0  0
 78 81  1  0  0  0  0
 82 83  1  0  0  0  0
 82 84  1  0  0  0  0
 82 85  1  0  0  0  0
 16 73  1  0  0  0  0
  7 13  1  0  0  0  0
M  END
>  <DFT-ENERGY>
-2370.95442506

$$$$
