
  CDK     08152413313D

 85 88  0  0  0  0  0  0  0  0999 V2000
    2.1308    1.2578   -0.2087 Ru  0  0  0  0  0  0  0  0  0  0  0  0
    3.7448    1.1493   -1.3142 C   0  0  0  0  0  0  0  0  0  0  0  0
    3.6099    1.4135   -2.3777 H   0  0  0  0  0  0  0  0  0  0  0  0
    4.0669    2.3931   -0.3924 C   0  0  0  0  0  0  0  0  0  0  0  0
    4.1882    3.2592   -1.0680 H   0  0  0  0  0  0  0  0  0  0  0  0
    2.9648    2.7996    0.6664 C   0  0  0  0  0  0  0  0  0  0  0  0
    3.2797    2.6386    1.7123 H   0  0  0  0  0  0  0  0  0  0  0  0
    2.4939    3.7739    0.4428 H   0  0  0  0  0  0  0  0  0  0  0  0
    4.9714    2.1294    0.1852 H   0  0  0  0  0  0  0  0  0  0  0  0
    4.3958    0.2811   -1.1058 H   0  0  0  0  0  0  0  0  0  0  0  0
    1.1968    2.7147   -1.8668 Cl  0  0  0  0  0  0  0  0  0  0  0  0
    3.1795   -0.1336    1.4383 Cl  0  0  0  0  0  0  0  0  0  0  0  0
    0.4177    0.2510   -0.0425 C   0  0  0  0  0  0  0  0  0  0  0  0
   -0.0345   -0.6485   -0.9452 N   0  0  0  0  0  0  0  0  0  0  0  0
   -1.3355   -1.2584   -0.5224 C   0  0  0  0  0  0  0  0  0  0  0  0
   -1.6545   -0.4954    0.8128 C   0  0  0  0  0  0  0  0  0  0  0  0
   -0.4476    0.3738    0.9892 N   0  0  0  0  0  0  0  0  0  0  0  0
   -2.1001   -0.9978   -1.2833 H   0  0  0  0  0  0  0  0  0  0  0  0
   -1.6793   -1.2220    1.6510 H   0  0  0  0  0  0  0  0  0  0  0  0
    0.5977   -0.7482   -2.2460 C   0  0  0  0  0  0  0  0  0  0  0  0
    1.8724   -0.8077   -4.7766 C   0  0  0  0  0  0  0  0  0  0  0  0
    1.8368   -1.4226   -2.3886 C   0  0  0  0  0  0  0  0  0  0  0  0
   -0.0072   -0.1066   -3.3577 C   0  0  0  0  0  0  0  0  0  0  0  0
    0.6362   -0.1632   -4.6014 C   0  0  0  0  0  0  0  0  0  0  0  0
    2.4489   -1.4223   -3.6583 C   0  0  0  0  0  0  0  0  0  0  0  0
    0.1662    0.3486   -5.4555 H   0  0  0  0  0  0  0  0  0  0  0  0
    3.4166   -1.9366   -3.7661 H   0  0  0  0  0  0  0  0  0  0  0  0
    2.5566   -0.8112   -6.1196 C   0  0  0  0  0  0  0  0  0  0  0  0
    1.8856   -1.1974   -6.9140 H   0  0  0  0  0  0  0  0  0  0  0  0
    3.4715   -1.4338   -6.1103 H   0  0  0  0  0  0  0  0  0  0  0  0
    2.8491    0.2173   -6.4182 H   0  0  0  0  0  0  0  0  0  0  0  0
    2.5132   -2.1973   -1.2870 C   0  0  0  0  0  0  0  0  0  0  0  0
    2.4317   -1.7250   -0.2911 H   0  0  0  0  0  0  0  0  0  0  0  0
    3.5928   -2.2999   -1.5069 H   0  0  0  0  0  0  0  0  0  0  0  0
    2.0980   -3.2254   -1.2218 H   0  0  0  0  0  0  0  0  0  0  0  0
   -1.2847    0.6742   -3.2299 C   0  0  0  0  0  0  0  0  0  0  0  0
   -1.4713    1.2605   -4.1484 H   0  0  0  0  0  0  0  0  0  0  0  0
   -1.2163    1.3837   -2.3845 H   0  0  0  0  0  0  0  0  0  0  0  0
   -2.1664    0.0179   -3.0704 H   0  0  0  0  0  0  0  0  0  0  0  0
   -0.0493    1.0854    2.1877 C   0  0  0  0  0  0  0  0  0  0  0  0
    0.8601    2.4431    4.5033 C   0  0  0  0  0  0  0  0  0  0  0  0
    0.3767    0.3443    3.3203 C   0  0  0  0  0  0  0  0  0  0  0  0
   -0.0269    2.5031    2.2029 C   0  0  0  0  0  0  0  0  0  0  0  0
    0.4425    3.1457    3.3663 C   0  0  0  0  0  0  0  0  0  0  0  0
    0.8080    1.0398    4.4581 C   0  0  0  0  0  0  0  0  0  0  0  0
    0.4702    4.2466    3.3738 H   0  0  0  0  0  0  0  0  0  0  0  0
    1.1493    0.4567    5.3275 H   0  0  0  0  0  0  0  0  0  0  0  0
    1.3719    3.1568    5.7282 C   0  0  0  0  0  0  0  0  0  0  0  0
    0.8394    2.8236    6.6424 H   0  0  0  0  0  0  0  0  0  0  0  0
    1.2526    4.2536    5.6416 H   0  0  0  0  0  0  0  0  0  0  0  0
    2.4498    2.9448    5.8891 H   0  0  0  0  0  0  0  0  0  0  0  0
    0.4271   -1.1575    3.3178 C   0  0  0  0  0  0  0  0  0  0  0  0
   -0.5851   -1.6133    3.3571 H   0  0  0  0  0  0  0  0  0  0  0  0
    0.9893   -1.5255    4.1956 H   0  0  0  0  0  0  0  0  0  0  0  0
    0.9423   -1.5217    2.4099 H   0  0  0  0  0  0  0  0  0  0  0  0
   -0.5343    3.3721    1.0812 C   0  0  0  0  0  0  0  0  0  0  0  0
   -0.0776    4.3778    1.1476 H   0  0  0  0  0  0  0  0  0  0  0  0
   -1.6334    3.5106    1.1623 H   0  0  0  0  0  0  0  0  0  0  0  0
   -0.3054    2.9818    0.0730 H   0  0  0  0  0  0  0  0  0  0  0  0
   -1.2870   -2.8242   -0.4463 C   0  0  0  0  0  0  0  0  0  0  0  0
   -0.9727   -3.3916   -1.8465 C   0  0  0  0  0  0  0  0  0  0  0  0
   -1.1058   -4.4924   -1.8370 H   0  0  0  0  0  0  0  0  0  0  0  0
    0.0575   -3.1792   -2.1784 H   0  0  0  0  0  0  0  0  0  0  0  0
   -1.6609   -2.9760   -2.6115 H   0  0  0  0  0  0  0  0  0  0  0  0
   -0.2501   -3.3160    0.5754 C   0  0  0  0  0  0  0  0  0  0  0  0
    0.7207   -2.8032    0.4629 H   0  0  0  0  0  0  0  0  0  0  0  0
   -0.0789   -4.4037    0.4462 H   0  0  0  0  0  0  0  0  0  0  0  0
   -0.6006   -3.1634    1.6141 H   0  0  0  0  0  0  0  0  0  0  0  0
   -2.6593   -3.3894   -0.0405 C   0  0  0  0  0  0  0  0  0  0  0  0
   -2.5961   -4.4959   -0.0140 H   0  0  0  0  0  0  0  0  0  0  0  0
   -3.4527   -3.1191   -0.7655 H   0  0  0  0  0  0  0  0  0  0  0  0
   -2.9751   -3.0549    0.9654 H   0  0  0  0  0  0  0  0  0  0  0  0
   -3.0031    0.3037    0.8644 C   0  0  0  0  0  0  0  0  0  0  0  0
   -4.2023   -0.6479    0.7102 C   0  0  0  0  0  0  0  0  0  0  0  0
   -4.2396   -1.4064    1.5173 H   0  0  0  0  0  0  0  0  0  0  0  0
   -4.2044   -1.1722   -0.2637 H   0  0  0  0  0  0  0  0  0  0  0  0
   -5.1378   -0.0557    0.7669 H   0  0  0  0  0  0  0  0  0  0  0  0
   -3.1452    0.9727    2.2477 C   0  0  0  0  0  0  0  0  0  0  0  0
   -2.9966    0.2380    3.0660 H   0  0  0  0  0  0  0  0  0  0  0  0
   -4.1669    1.3905    2.3522 H   0  0  0  0  0  0  0  0  0  0  0  0
   -2.4268    1.7944    2.4067 H   0  0  0  0  0  0  0  0  0  0  0  0
   -3.0872    1.3576   -0.2504 C   0  0  0  0  0  0  0  0  0  0  0  0
   -2.1647    1.9589   -0.3250 H   0  0  0  0  0  0  0  0  0  0  0  0
   -3.9309    2.0494   -0.0533 H   0  0  0  0  0  0  0  0  0  0  0  0
   -3.2733    0.8909   -1.2365 H   0  0  0  0  0  0  0  0  0  0  0  0
  2  4  1  0  0  0  0
  2  1  1  0  0  0  0
  2  3  1  0  0  0  0
  4  6  1  0  0  0  0
  4  5  1  0  0  0  0
  6  1  1  0  0  0  0
  6  8  1  0  0  0  0
  7  6  1  0  0  0  0
  9  4  1  0  0  0  0
 10  2  1  0  0  0  0
  1 11  1  0  0  0  0
  1 12  1  0  0  0  0
 13 14  1  0  0  0  0
 13 17  1  0  0  0  0
 14 15  1  0  0  0  0
 15 18  1  0  0  0  0
 15 16  1  0  0  0  0
 16 19  1  0  0  0  0
 16 17  1  0  0  0  0
 20 23  2  0  0  0  0
 20 22  1  0  0  0  0
 21 24  2  0  0  0  0
 21 25  1  0  0  0  0
 22 25  2  0  0  0  0
 23 24  1  0  0  0  0
 24 26  1  0  0  0  0
 25 27  1  0  0  0  0
 14 20  1  0  0  0  0
 28 29  1  0  0  0  0
 28 30  1  0  0  0  0
 28 31  1  0  0  0  0
 21 28  1  0  0  0  0
 32 33  1  0  0  0  0
 32 34  1  0  0  0  0
 32 35  1  0  0  0  0
 22 32  1  0  0  0  0
 36 37  1  0  0  0  0
 36 38  1  0  0  0  0
 36 39  1  0  0  0  0
 23 36  1  0  0  0  0
 40 43  2  0  0  0  0
 40 42  1  0  0  0  0
 41 44  2  0  0  0  0
 41 45  1  0  0  0  0
 42 45  2  0  0  0  0
 43 44  1  0  0  0  0
 44 46  1  0  0  0  0
 45 47  1  0  0  0  0
 17 40  1  0  0  0  0
 48 49  1  0  0  0  0
 48 50  1  0  0  0  0
 48 51  1  0  0  0  0
 41 48  1  0  0  0  0
 52 53  1  0  0  0  0
 52 54  1  0  0  0  0
 52 55  1  0  0  0  0
 42 52  1  0  0  0  0
 56 57  1  0  0  0  0
 56 58  1  0  0  0  0
 56 59  1  0  0  0  0
 43 56  1  0  0  0  0
 60 61  1  0  0  0  0
 60 65  1  0  0  0  0
 60 69  1  0  0  0  0
 61 62  1  0  0  0  0
 61 63  1  0  0  0  0
 61 64  1  0  0  0  0
 65 66  1  0  0  0  0
 65 67  1  0  0  0  0
 65 68  1  0  0  0  0
 69 70  1  0  0  0  0
 69 71  1  0  0  0  0
 69 72  1  0  0  0  0
 15 60  1  0  0  0  0
 73 74  1  0  0  0  0
 73 78  1  0  0  0  0
 73 82  1  0  0  0  0
 74 75  1  0  0  0  0
 74 76  1  0  0  0  0
 74 77  1  0  0  0  0
 78 79  1  0  0  0  0
 78 80  1  0  0  0  0
 78 81  1  0  0  0  0
 82 83  1  0  0  0  0
 82 84  1  0  0  0  0
 82 85  1  0  0  0  0
 16 73  1  0  0  0  0
  1 13  1  0  0  0  0
M  END
>  <DFT-ENERGY>
-2370.99751771

$$$$
