
  CDK     02062400203D

 65 68  0  0  0  0  0  0  0  0999 V2000
   -1.9914    0.7893    1.1427 Ru  0  0  0  0  0  0  0  0  0  0  0  0
   -3.5903    1.9214    1.2991 C   0  0  0  0  0  0  0  0  0  0  0  0
   -3.4069    2.9578    1.6317 H   0  0  0  0  0  0  0  0  0  0  0  0
   -3.8053    0.9149    2.5087 C   0  0  0  0  0  0  0  0  0  0  0  0
   -3.8217    1.5349    3.4231 H   0  0  0  0  0  0  0  0  0  0  0  0
   -2.6857   -0.1720    2.7200 C   0  0  0  0  0  0  0  0  0  0  0  0
   -3.0176   -1.2046    2.5174 H   0  0  0  0  0  0  0  0  0  0  0  0
   -2.0948   -0.0215    3.6396 H   0  0  0  0  0  0  0  0  0  0  0  0
   -4.7449    0.3723    2.2998 H   0  0  0  0  0  0  0  0  0  0  0  0
   -4.3322    1.7880    0.4923 H   0  0  0  0  0  0  0  0  0  0  0  0
   -0.9427    2.3311    2.6642 Cl  0  0  0  0  0  0  0  0  0  0  0  0
   -3.3098   -0.7150   -0.1725 Cl  0  0  0  0  0  0  0  0  0  0  0  0
   -0.3688    0.8286    0.0597 C   0  0  0  0  0  0  0  0  0  0  0  0
    0.0880    1.9289   -0.9164 C   0  0  0  0  0  0  0  0  0  0  0  0
    1.6282    1.8024   -0.7425 C   0  0  0  0  0  0  0  0  0  0  0  0
    2.1928    2.1849   -1.6116 H   0  0  0  0  0  0  0  0  0  0  0  0
    1.9260    2.3864    0.1514 H   0  0  0  0  0  0  0  0  0  0  0  0
    1.9085    0.3094   -0.4850 C   0  0  0  0  0  0  0  0  0  0  0  0
    0.6175   -0.0538    0.2327 N   0  0  0  0  0  0  0  0  0  0  0  0
   -0.4329    3.3270   -0.5357 C   0  0  0  0  0  0  0  0  0  0  0  0
   -1.5343    3.3696   -0.6478 H   0  0  0  0  0  0  0  0  0  0  0  0
    0.0058    4.0816   -1.2179 H   0  0  0  0  0  0  0  0  0  0  0  0
   -0.1858    3.5739    0.5134 H   0  0  0  0  0  0  0  0  0  0  0  0
   -0.3515    1.6274   -2.3615 C   0  0  0  0  0  0  0  0  0  0  0  0
   -1.4289    0.7729   -2.6551 C   0  0  0  0  0  0  0  0  0  0  0  0
   -1.9841    0.2774   -1.8450 H   0  0  0  0  0  0  0  0  0  0  0  0
   -1.8193    0.5465   -3.9850 C   0  0  0  0  0  0  0  0  0  0  0  0
   -2.6616   -0.1322   -4.1847 H   0  0  0  0  0  0  0  0  0  0  0  0
   -1.1508    1.1778   -5.0421 C   0  0  0  0  0  0  0  0  0  0  0  0
   -1.4563    0.9982   -6.0831 H   0  0  0  0  0  0  0  0  0  0  0  0
   -0.0905    2.0527   -4.7568 C   0  0  0  0  0  0  0  0  0  0  0  0
    0.4365    2.5683   -5.5732 H   0  0  0  0  0  0  0  0  0  0  0  0
    0.3027    2.2756   -3.4305 C   0  0  0  0  0  0  0  0  0  0  0  0
    1.1313    2.9716   -3.2315 H   0  0  0  0  0  0  0  0  0  0  0  0
    2.0708   -0.5061   -1.7763 C   0  0  0  0  0  0  0  0  0  0  0  0
    2.1855   -1.5825   -1.5463 H   0  0  0  0  0  0  0  0  0  0  0  0
    2.9904   -0.1734   -2.2971 H   0  0  0  0  0  0  0  0  0  0  0  0
    1.2208   -0.3739   -2.4687 H   0  0  0  0  0  0  0  0  0  0  0  0
    3.1298    0.0802    0.4037 C   0  0  0  0  0  0  0  0  0  0  0  0
    4.0429    0.3096   -0.1799 H   0  0  0  0  0  0  0  0  0  0  0  0
    3.1943   -0.9770    0.7287 H   0  0  0  0  0  0  0  0  0  0  0  0
    3.1235    0.7279    1.2976 H   0  0  0  0  0  0  0  0  0  0  0  0
    0.3826   -1.2431    1.0349 C   0  0  0  0  0  0  0  0  0  0  0  0
   -0.2225   -2.3703    0.4161 C   0  0  0  0  0  0  0  0  0  0  0  0
   -0.5637   -3.4644    1.2314 C   0  0  0  0  0  0  0  0  0  0  0  0
   -1.0584   -4.3313    0.7698 H   0  0  0  0  0  0  0  0  0  0  0  0
   -0.3156   -3.4535    2.6068 C   0  0  0  0  0  0  0  0  0  0  0  0
   -0.6088   -4.3126    3.2278 H   0  0  0  0  0  0  0  0  0  0  0  0
    0.2965   -2.3417    3.1914 C   0  0  0  0  0  0  0  0  0  0  0  0
    0.4843   -2.3269    4.2751 H   0  0  0  0  0  0  0  0  0  0  0  0
    0.6615   -1.2157    2.4288 C   0  0  0  0  0  0  0  0  0  0  0  0
   -0.5510   -2.4537   -1.0575 C   0  0  0  0  0  0  0  0  0  0  0  0
   -0.3406   -1.4933   -1.5563 H   0  0  0  0  0  0  0  0  0  0  0  0
   -1.6486   -2.5877   -1.1425 H   0  0  0  0  0  0  0  0  0  0  0  0
    0.1721   -3.5973   -1.7823 C   0  0  0  0  0  0  0  0  0  0  0  0
    1.2750   -3.4985   -1.7163 H   0  0  0  0  0  0  0  0  0  0  0  0
   -0.1043   -3.6115   -2.8556 H   0  0  0  0  0  0  0  0  0  0  0  0
   -0.0920   -4.5860   -1.3556 H   0  0  0  0  0  0  0  0  0  0  0  0
    1.2955   -0.0485    3.1522 C   0  0  0  0  0  0  0  0  0  0  0  0
    0.5672    0.3273    3.9003 H   0  0  0  0  0  0  0  0  0  0  0  0
    1.4311    0.8042    2.4652 H   0  0  0  0  0  0  0  0  0  0  0  0
    2.6117   -0.4035    3.8581 C   0  0  0  0  0  0  0  0  0  0  0  0
    3.3784   -0.7690    3.1460 H   0  0  0  0  0  0  0  0  0  0  0  0
    2.4684   -1.1970    4.6188 H   0  0  0  0  0  0  0  0  0  0  0  0
    3.0226    0.4848    4.3784 H   0  0  0  0  0  0  0  0  0  0  0  0
  2  4  1  0  0  0  0
  2  1  1  0  0  0  0
  2  3  1  0  0  0  0
  4  6  1  0  0  0  0
  4  5  1  0  0  0  0
  6  1  1  0  0  0  0
  6  8  1  0  0  0  0
  7  6  1  0  0  0  0
  9  4  1  0  0  0  0
 10  2  1  0  0  0  0
  1 11  1  0  0  0  0
  1 12  1  0  0  0  0
 13 19  1  0  0  0  0
 14 15  1  0  0  0  0
 14 20  1  0  0  0  0
 14 24  1  0  0  0  0
 15 16  1  0  0  0  0
 15 17  1  0  0  0  0
 15 18  1  0  0  0  0
 18 19  1  0  0  0  0
 18 35  1  0  0  0  0
 18 39  1  0  0  0  0
 19 43  1  0  0  0  0
 20 21  1  0  0  0  0
 20 22  1  0  0  0  0
 20 23  1  0  0  0  0
 24 25  1  0  0  0  0
 24 33  2  0  0  0  0
 25 26  1  0  0  0  0
 25 27  2  0  0  0  0
 27 28  1  0  0  0  0
 27 29  1  0  0  0  0
 29 30  1  0  0  0  0
 29 31  2  0  0  0  0
 31 32  1  0  0  0  0
 31 33  1  0  0  0  0
 33 34  1  0  0  0  0
 35 36  1  0  0  0  0
 35 37  1  0  0  0  0
 35 38  1  0  0  0  0
 39 40  1  0  0  0  0
 39 41  1  0  0  0  0
 39 42  1  0  0  0  0
 43 44  1  0  0  0  0
 43 51  2  0  0  0  0
 44 45  2  0  0  0  0
 44 52  1  0  0  0  0
 45 46  1  0  0  0  0
 45 47  1  0  0  0  0
 47 48  1  0  0  0  0
 47 49  2  0  0  0  0
 49 50  1  0  0  0  0
 49 51  1  0  0  0  0
 51 59  1  0  0  0  0
 52 53  1  0  0  0  0
 52 54  1  0  0  0  0
 52 55  1  0  0  0  0
 55 56  1  0  0  0  0
 55 57  1  0  0  0  0
 55 58  1  0  0  0  0
 59 60  1  0  0  0  0
 59 61  1  0  0  0  0
 59 62  1  0  0  0  0
 62 63  1  0  0  0  0
 62 64  1  0  0  0  0
 62 65  1  0  0  0  0
 13 14  1  0  0  0  0
  1 13  1  0  0  0  0
M  END
>  <DFT-ENERGY>
-2080.1081353

$$$$
