
  CDK     02052422043D

 65 69  0  0  0  0  0  0  0  0999 V2000
    1.1888   -1.0606   -3.6508 H   0  0  0  0  0  0  0  0  0  0  0  0
    2.3966   -1.0468   -3.4162 C   0  0  0  0  0  0  0  0  0  0  0  0
    2.6159   -1.3048   -4.4733 H   0  0  0  0  0  0  0  0  0  0  0  0
    2.5145    0.3425   -2.8769 C   0  0  0  0  0  0  0  0  0  0  0  0
    3.3205    0.5569   -2.1573 H   0  0  0  0  0  0  0  0  0  0  0  0
    2.2812    1.1499   -3.5919 H   0  0  0  0  0  0  0  0  0  0  0  0
    0.8814   -0.5718   -1.9736 Ru  0  0  0  0  0  0  0  0  0  0  0  0
    2.3593   -2.0531   -2.3324 C   0  0  0  0  0  0  0  0  0  0  0  0
    3.1300   -2.0342   -1.5510 H   0  0  0  0  0  0  0  0  0  0  0  0
    1.9593   -3.0486   -2.5932 H   0  0  0  0  0  0  0  0  0  0  0  0
    2.2025   -0.4210    0.0778 Cl  0  0  0  0  0  0  0  0  0  0  0  0
   -0.5755    0.2897   -3.6951 Cl  0  0  0  0  0  0  0  0  0  0  0  0
   -0.4028    0.0678   -0.5304 C   0  0  0  0  0  0  0  0  0  0  0  0
   -0.9800    1.4187   -0.0723 C   0  0  0  0  0  0  0  0  0  0  0  0
   -2.1955    0.9602    0.7836 C   0  0  0  0  0  0  0  0  0  0  0  0
   -2.4381    1.6462    1.6137 H   0  0  0  0  0  0  0  0  0  0  0  0
   -3.0821    0.9283    0.1197 H   0  0  0  0  0  0  0  0  0  0  0  0
   -1.8971   -0.4685    1.2763 C   0  0  0  0  0  0  0  0  0  0  0  0
   -0.9750   -0.9167    0.1581 N   0  0  0  0  0  0  0  0  0  0  0  0
   -1.4892    2.2613   -1.2635 C   0  0  0  0  0  0  0  0  0  0  0  0
   -0.6645    2.5584   -1.9338 H   0  0  0  0  0  0  0  0  0  0  0  0
   -1.9699    3.1750   -0.8590 H   0  0  0  0  0  0  0  0  0  0  0  0
   -2.2214    1.6968   -1.8707 H   0  0  0  0  0  0  0  0  0  0  0  0
    0.0876    2.2556    0.6576 C   0  0  0  0  0  0  0  0  0  0  0  0
    1.2560    2.6138   -0.0456 C   0  0  0  0  0  0  0  0  0  0  0  0
    1.4116    2.2186   -1.0593 H   0  0  0  0  0  0  0  0  0  0  0  0
    2.2254    3.4350    0.5389 C   0  0  0  0  0  0  0  0  0  0  0  0
    3.1319    3.6901   -0.0288 H   0  0  0  0  0  0  0  0  0  0  0  0
    2.0506    3.9190    1.8451 C   0  0  0  0  0  0  0  0  0  0  0  0
    2.8135    4.5623    2.3070 H   0  0  0  0  0  0  0  0  0  0  0  0
    0.8942    3.5722    2.5541 C   0  0  0  0  0  0  0  0  0  0  0  0
    0.7386    3.9440    3.5774 H   0  0  0  0  0  0  0  0  0  0  0  0
   -0.0788    2.7481    1.9634 C   0  0  0  0  0  0  0  0  0  0  0  0
   -0.9762    2.5018    2.5460 H   0  0  0  0  0  0  0  0  0  0  0  0
   -1.1575   -0.4545    2.6231 C   0  0  0  0  0  0  0  0  0  0  0  0
   -0.9993   -1.4748    3.0147 H   0  0  0  0  0  0  0  0  0  0  0  0
   -1.7764    0.0931    3.3619 H   0  0  0  0  0  0  0  0  0  0  0  0
   -0.1799    0.0568    2.5410 H   0  0  0  0  0  0  0  0  0  0  0  0
   -3.1343   -1.3590    1.3543 C   0  0  0  0  0  0  0  0  0  0  0  0
   -3.7813   -1.0154    2.1851 H   0  0  0  0  0  0  0  0  0  0  0  0
   -2.8558   -2.4129    1.5546 H   0  0  0  0  0  0  0  0  0  0  0  0
   -3.7259   -1.3247    0.4210 H   0  0  0  0  0  0  0  0  0  0  0  0
   -0.7671   -2.2670   -0.3465 C   0  0  0  0  0  0  0  0  0  0  0  0
    0.1266   -3.1792    0.2784 C   0  0  0  0  0  0  0  0  0  0  0  0
    0.3766   -4.4008   -0.3703 C   0  0  0  0  0  0  0  0  0  0  0  0
    1.0895   -5.1002    0.0912 H   0  0  0  0  0  0  0  0  0  0  0  0
   -0.2297   -4.7247   -1.5901 C   0  0  0  0  0  0  0  0  0  0  0  0
    0.0069   -5.6758   -2.0893 H   0  0  0  0  0  0  0  0  0  0  0  0
   -1.1465   -3.8415   -2.1608 C   0  0  0  0  0  0  0  0  0  0  0  0
   -1.6516   -4.1029   -3.1020 H   0  0  0  0  0  0  0  0  0  0  0  0
   -1.4581   -2.6085   -1.5488 C   0  0  0  0  0  0  0  0  0  0  0  0
    0.8155   -2.9346    1.5996 C   0  0  0  0  0  0  0  0  0  0  0  0
    0.7826   -1.8643    1.8554 H   0  0  0  0  0  0  0  0  0  0  0  0
    1.8929   -3.1646    1.4734 H   0  0  0  0  0  0  0  0  0  0  0  0
    0.2316   -3.8029    2.7247 C   0  0  0  0  0  0  0  0  0  0  0  0
   -0.8511   -3.6083    2.8736 H   0  0  0  0  0  0  0  0  0  0  0  0
    0.7492   -3.6036    3.6846 H   0  0  0  0  0  0  0  0  0  0  0  0
    0.3354   -4.8839    2.5004 H   0  0  0  0  0  0  0  0  0  0  0  0
   -2.5855   -1.7931   -2.1452 C   0  0  0  0  0  0  0  0  0  0  0  0
   -2.3162   -1.5241   -3.1860 H   0  0  0  0  0  0  0  0  0  0  0  0
   -2.6840   -0.8245   -1.6225 H   0  0  0  0  0  0  0  0  0  0  0  0
   -3.9273   -2.5420   -2.1248 C   0  0  0  0  0  0  0  0  0  0  0  0
   -4.2305   -2.8211   -1.0950 H   0  0  0  0  0  0  0  0  0  0  0  0
   -3.8826   -3.4785   -2.7156 H   0  0  0  0  0  0  0  0  0  0  0  0
   -4.7278   -1.9108   -2.5603 H   0  0  0  0  0  0  0  0  0  0  0  0
  1  2  1  0  0  0  0
  1  7  1  0  0  0  0
  2  3  1  0  0  0  0
  2  4  1  0  0  0  0
  4  5  1  0  0  0  0
  6  4  1  0  0  0  0
  7  8  1  0  0  0  0
  7  4  1  0  0  0  0
  8  2  1  0  0  0  0
  8  9  1  0  0  0  0
 10  8  1  0  0  0  0
  7 11  1  0  0  0  0
  7 12  1  0  0  0  0
 13 19  1  0  0  0  0
 14 15  1  0  0  0  0
 14 20  1  0  0  0  0
 14 24  1  0  0  0  0
 15 16  1  0  0  0  0
 15 17  1  0  0  0  0
 15 18  1  0  0  0  0
 18 19  1  0  0  0  0
 18 35  1  0  0  0  0
 18 39  1  0  0  0  0
 19 43  1  0  0  0  0
 20 21  1  0  0  0  0
 20 22  1  0  0  0  0
 20 23  1  0  0  0  0
 24 25  1  0  0  0  0
 24 33  2  0  0  0  0
 25 26  1  0  0  0  0
 25 27  2  0  0  0  0
 27 28  1  0  0  0  0
 27 29  1  0  0  0  0
 29 30  1  0  0  0  0
 29 31  2  0  0  0  0
 31 32  1  0  0  0  0
 31 33  1  0  0  0  0
 33 34  1  0  0  0  0
 35 36  1  0  0  0  0
 35 37  1  0  0  0  0
 35 38  1  0  0  0  0
 39 40  1  0  0  0  0
 39 41  1  0  0  0  0
 39 42  1  0  0  0  0
 43 44  1  0  0  0  0
 43 51  2  0  0  0  0
 44 45  2  0  0  0  0
 44 52  1  0  0  0  0
 45 46  1  0  0  0  0
 45 47  1  0  0  0  0
 47 48  1  0  0  0  0
 47 49  2  0  0  0  0
 49 50  1  0  0  0  0
 49 51  1  0  0  0  0
 51 59  1  0  0  0  0
 52 53  1  0  0  0  0
 52 54  1  0  0  0  0
 52 55  1  0  0  0  0
 55 56  1  0  0  0  0
 55 57  1  0  0  0  0
 55 58  1  0  0  0  0
 59 60  1  0  0  0  0
 59 61  1  0  0  0  0
 59 62  1  0  0  0  0
 62 63  1  0  0  0  0
 62 64  1  0  0  0  0
 62 65  1  0  0  0  0
 13 14  1  0  0  0  0
  7 13  1  0  0  0  0
M  END
>  <DFT-ENERGY>
-2080.05616635

$$$$
