
  CDK     02062403493D

 46 49  0  0  0  0  0  0  0  0999 V2000
    1.8945   -1.1658   -0.2282 Ru  0  0  0  0  0  0  0  0  0  0  0  0
    3.0294   -1.0890   -1.8298 C   0  0  0  0  0  0  0  0  0  0  0  0
    2.5918   -1.5202   -2.7472 H   0  0  0  0  0  0  0  0  0  0  0  0
    3.7716   -2.1442   -0.9350 C   0  0  0  0  0  0  0  0  0  0  0  0
    3.8080   -3.0718   -1.5356 H   0  0  0  0  0  0  0  0  0  0  0  0
    3.0646   -2.5810    0.4283 C   0  0  0  0  0  0  0  0  0  0  0  0
    3.6712   -2.3168    1.3137 H   0  0  0  0  0  0  0  0  0  0  0  0
    2.6714   -3.6124    0.3903 H   0  0  0  0  0  0  0  0  0  0  0  0
    4.7535   -1.7182   -0.6607 H   0  0  0  0  0  0  0  0  0  0  0  0
    3.5859   -0.1421   -1.9487 H   0  0  0  0  0  0  0  0  0  0  0  0
    0.6188   -2.8611   -1.3450 Cl  0  0  0  0  0  0  0  0  0  0  0  0
    3.2904    0.4801    0.7982 Cl  0  0  0  0  0  0  0  0  0  0  0  0
   -0.1181   -0.1138    0.2836 P   0  0  0  0  0  0  0  0  0  0  0  0
    0.8087    3.2293   -1.9419 C   0  0  0  0  0  0  0  0  0  0  0  0
   -0.4026    0.8548    1.8215 C   0  0  0  0  0  0  0  0  0  0  0  0
    0.0379    0.5640   -2.4235 C   0  0  0  0  0  0  0  0  0  0  0  0
    0.5160    2.3895   -0.8604 C   0  0  0  0  0  0  0  0  0  0  0  0
   -1.7216   -0.9616    0.0106 C   0  0  0  0  0  0  0  0  0  0  0  0
    0.1184    1.0605   -1.1032 C   0  0  0  0  0  0  0  0  0  0  0  0
    0.6416    1.0617    2.7429 C   0  0  0  0  0  0  0  0  0  0  0  0
    0.3348    1.4159   -3.4965 C   0  0  0  0  0  0  0  0  0  0  0  0
   -1.9501   -2.1859    0.6668 C   0  0  0  0  0  0  0  0  0  0  0  0
   -1.6867    1.3829    2.0760 C   0  0  0  0  0  0  0  0  0  0  0  0
   -3.9759   -1.0261   -0.8973 C   0  0  0  0  0  0  0  0  0  0  0  0
   -3.1925   -2.8193    0.5453 C   0  0  0  0  0  0  0  0  0  0  0  0
    0.3994    1.8075    3.9069 C   0  0  0  0  0  0  0  0  0  0  0  0
   -0.8723    2.3431    4.1559 C   0  0  0  0  0  0  0  0  0  0  0  0
   -1.9141    2.1310    3.2379 C   0  0  0  0  0  0  0  0  0  0  0  0
   -2.7345   -0.3820   -0.7750 C   0  0  0  0  0  0  0  0  0  0  0  0
   -4.2064   -2.2411   -0.2362 C   0  0  0  0  0  0  0  0  0  0  0  0
    0.7186    2.7451   -3.2577 C   0  0  0  0  0  0  0  0  0  0  0  0
    1.1179    4.2678   -1.7560 H   0  0  0  0  0  0  0  0  0  0  0  0
   -0.2354   -0.4885   -2.5942 H   0  0  0  0  0  0  0  0  0  0  0  0
    0.6058    2.7545    0.1719 H   0  0  0  0  0  0  0  0  0  0  0  0
    1.6438    0.6639    2.5255 H   0  0  0  0  0  0  0  0  0  0  0  0
    0.2733    1.0337   -4.5256 H   0  0  0  0  0  0  0  0  0  0  0  0
   -1.1451   -2.6500    1.2535 H   0  0  0  0  0  0  0  0  0  0  0  0
   -2.5095    1.2029    1.3703 H   0  0  0  0  0  0  0  0  0  0  0  0
   -4.7650   -0.5736   -1.5152 H   0  0  0  0  0  0  0  0  0  0  0  0
   -3.3661   -3.7789    1.0528 H   0  0  0  0  0  0  0  0  0  0  0  0
    1.2178    1.9683    4.6234 H   0  0  0  0  0  0  0  0  0  0  0  0
   -1.0567    2.9253    5.0707 H   0  0  0  0  0  0  0  0  0  0  0  0
   -2.9145    2.5449    3.4303 H   0  0  0  0  0  0  0  0  0  0  0  0
   -2.5517    0.5679   -1.2976 H   0  0  0  0  0  0  0  0  0  0  0  0
   -5.1785   -2.7452   -0.3357 H   0  0  0  0  0  0  0  0  0  0  0  0
    0.9557    3.4080   -4.1026 H   0  0  0  0  0  0  0  0  0  0  0  0
  2  4  1  0  0  0  0
  2  1  1  0  0  0  0
  2  3  1  0  0  0  0
  4  6  1  0  0  0  0
  4  5  1  0  0  0  0
  6  1  1  0  0  0  0
  6  8  1  0  0  0  0
  7  6  1  0  0  0  0
  9  4  1  0  0  0  0
 10  2  1  0  0  0  0
  1 11  1  0  0  0  0
  1 12  1  0  0  0  0
 14 17  1  0  0  0  0
 15 13  1  0  0  0  0
 16 19  1  0  0  0  0
 17 19  2  0  0  0  0
 18 13  1  0  0  0  0
 19 13  1  0  0  0  0
 20 15  1  0  0  0  0
 21 16  2  0  0  0  0
 22 18  2  0  0  0  0
 23 15  2  0  0  0  0
 24 29  2  0  0  0  0
 25 22  1  0  0  0  0
 26 20  2  0  0  0  0
 27 26  1  0  0  0  0
 28 23  1  0  0  0  0
 29 18  1  0  0  0  0
 30 24  1  0  0  0  0
 31 14  2  0  0  0  0
 32 14  1  0  0  0  0
 33 16  1  0  0  0  0
 34 17  1  0  0  0  0
 35 20  1  0  0  0  0
 36 21  1  0  0  0  0
 37 22  1  0  0  0  0
 38 23  1  0  0  0  0
 39 24  1  0  0  0  0
 40 25  1  0  0  0  0
 41 26  1  0  0  0  0
 42 27  1  0  0  0  0
 43 28  1  0  0  0  0
 44 29  1  0  0  0  0
 45 30  1  0  0  0  0
 46 31  1  0  0  0  0
 21 31  1  0  0  0  0
 25 30  2  0  0  0  0
 27 28  2  0  0  0  0
  1 13  1  0  0  0  0
M  END
>  <DFT-ENERGY>
-2167.92026356

$$$$
