
  CDK     08132415413D

 91 94  0  0  0  0  0  0  0  0999 V2000
    0.4136    4.2696   -2.1486 C   0  0  0  0  0  0  0  0  0  0  0  0
   -0.6195    4.2907   -2.5375 H   0  0  0  0  0  0  0  0  0  0  0  0
    0.9340    5.2127   -2.4310 H   0  0  0  0  0  0  0  0  0  0  0  0
    0.9504    3.4392   -2.6448 H   0  0  0  0  0  0  0  0  0  0  0  0
    0.4425    4.1399   -0.6440 C   0  0  0  0  0  0  0  0  0  0  0  0
    1.4436    4.1753   -0.1725 H   0  0  0  0  0  0  0  0  0  0  0  0
   -0.6184    4.6099    0.1770 C   0  0  0  0  0  0  0  0  0  0  0  0
   -1.5648    4.8363   -0.3459 H   0  0  0  0  0  0  0  0  0  0  0  0
   -0.3429    5.3363    1.4718 C   0  0  0  0  0  0  0  0  0  0  0  0
   -1.2446    5.4345    2.1053 H   0  0  0  0  0  0  0  0  0  0  0  0
    0.0111    6.3619    1.2300 H   0  0  0  0  0  0  0  0  0  0  0  0
    0.4528    4.8211    2.0450 H   0  0  0  0  0  0  0  0  0  0  0  0
   -1.6038    2.7879    1.2235 C   0  0  0  0  0  0  0  0  0  0  0  0
   -1.3603    2.9563    2.2935 H   0  0  0  0  0  0  0  0  0  0  0  0
   -2.6515    2.9613    0.8952 H   0  0  0  0  0  0  0  0  0  0  0  0
   -0.3340    2.2078    0.0294 Ru  0  0  0  0  0  0  0  0  0  0  0  0
    1.2897    2.3066    1.8140 Cl  0  0  0  0  0  0  0  0  0  0  0  0
   -2.0018    2.1681   -1.7042 Cl  0  0  0  0  0  0  0  0  0  0  0  0
   -0.1748    0.2101    0.0207 C   0  0  0  0  0  0  0  0  0  0  0  0
   -0.7567   -0.6840    0.8646 N   0  0  0  0  0  0  0  0  0  0  0  0
   -0.3653   -2.0978    0.5511 C   0  0  0  0  0  0  0  0  0  0  0  0
    0.6227   -1.9275   -0.6539 C   0  0  0  0  0  0  0  0  0  0  0  0
    0.6151   -0.4464   -0.8697 N   0  0  0  0  0  0  0  0  0  0  0  0
    0.1917   -2.5006    1.4228 H   0  0  0  0  0  0  0  0  0  0  0  0
    0.1893   -2.4114   -1.5545 H   0  0  0  0  0  0  0  0  0  0  0  0
    1.0936    0.2467   -2.0509 C   0  0  0  0  0  0  0  0  0  0  0  0
    1.9823    1.5727   -4.4008 C   0  0  0  0  0  0  0  0  0  0  0  0
    0.3550    0.1272   -3.2597 C   0  0  0  0  0  0  0  0  0  0  0  0
    2.2712    1.0399   -2.0076 C   0  0  0  0  0  0  0  0  0  0  0  0
    2.6827    1.6840   -3.1934 C   0  0  0  0  0  0  0  0  0  0  0  0
    0.8173    0.7873   -4.4065 C   0  0  0  0  0  0  0  0  0  0  0  0
    3.5965    2.2974   -3.1563 H   0  0  0  0  0  0  0  0  0  0  0  0
    0.2298    0.6964   -5.3332 H   0  0  0  0  0  0  0  0  0  0  0  0
   -1.4145   -0.2595    2.0814 C   0  0  0  0  0  0  0  0  0  0  0  0
   -2.6506    0.6391    4.4726 C   0  0  0  0  0  0  0  0  0  0  0  0
   -2.7463    0.2293    2.0424 C   0  0  0  0  0  0  0  0  0  0  0  0
   -0.6974   -0.2925    3.3038 C   0  0  0  0  0  0  0  0  0  0  0  0
   -1.3352    0.1479    4.4746 C   0  0  0  0  0  0  0  0  0  0  0  0
   -3.3289    0.6726    3.2466 C   0  0  0  0  0  0  0  0  0  0  0  0
   -0.7661    0.1267    5.4172 H   0  0  0  0  0  0  0  0  0  0  0  0
   -4.3598    1.0582    3.2123 H   0  0  0  0  0  0  0  0  0  0  0  0
   -3.5919    0.2625    0.7964 C   0  0  0  0  0  0  0  0  0  0  0  0
   -3.0240    0.5464   -0.1094 H   0  0  0  0  0  0  0  0  0  0  0  0
   -4.4111    0.9971    0.9148 H   0  0  0  0  0  0  0  0  0  0  0  0
   -4.0694   -0.7234    0.6174 H   0  0  0  0  0  0  0  0  0  0  0  0
    0.7305   -0.7554    3.3811 C   0  0  0  0  0  0  0  0  0  0  0  0
    1.3329   -0.2907    2.5794 H   0  0  0  0  0  0  0  0  0  0  0  0
    0.8145   -1.8598    3.2961 H   0  0  0  0  0  0  0  0  0  0  0  0
    1.1775   -0.4649    4.3498 H   0  0  0  0  0  0  0  0  0  0  0  0
    3.1566    1.1929   -0.7990 C   0  0  0  0  0  0  0  0  0  0  0  0
    3.9171    0.3845   -0.7648 H   0  0  0  0  0  0  0  0  0  0  0  0
    2.6028    1.1947    0.1565 H   0  0  0  0  0  0  0  0  0  0  0  0
    3.7070    2.1514   -0.8562 H   0  0  0  0  0  0  0  0  0  0  0  0
   -0.9170   -0.6674   -3.3385 C   0  0  0  0  0  0  0  0  0  0  0  0
   -1.4553   -0.4402   -4.2769 H   0  0  0  0  0  0  0  0  0  0  0  0
   -1.5857   -0.4124   -2.4963 H   0  0  0  0  0  0  0  0  0  0  0  0
   -0.7237   -1.7606   -3.3213 H   0  0  0  0  0  0  0  0  0  0  0  0
    2.4289    2.3060   -5.6390 C   0  0  0  0  0  0  0  0  0  0  0  0
    1.7991    3.2048   -5.8114 H   0  0  0  0  0  0  0  0  0  0  0  0
    2.3385    1.6708   -6.5428 H   0  0  0  0  0  0  0  0  0  0  0  0
    3.4791    2.6458   -5.5564 H   0  0  0  0  0  0  0  0  0  0  0  0
   -3.2973    1.1225    5.7458 C   0  0  0  0  0  0  0  0  0  0  0  0
   -2.7159    1.9510    6.2008 H   0  0  0  0  0  0  0  0  0  0  0  0
   -3.3485    0.3132    6.5035 H   0  0  0  0  0  0  0  0  0  0  0  0
   -4.3270    1.4868    5.5675 H   0  0  0  0  0  0  0  0  0  0  0  0
    2.0668   -2.5180   -0.4718 C   0  0  0  0  0  0  0  0  0  0  0  0
   -1.5955   -3.0489    0.3235 C   0  0  0  0  0  0  0  0  0  0  0  0
    2.0213   -4.0380   -0.2353 C   0  0  0  0  0  0  0  0  0  0  0  0
    3.0598   -4.4091   -0.1207 H   0  0  0  0  0  0  0  0  0  0  0  0
    1.5669   -4.5820   -1.0867 H   0  0  0  0  0  0  0  0  0  0  0  0
    1.4738   -4.3073    0.6870 H   0  0  0  0  0  0  0  0  0  0  0  0
    2.8672   -2.3089   -1.7747 C   0  0  0  0  0  0  0  0  0  0  0  0
    2.3109   -2.7037   -2.6502 H   0  0  0  0  0  0  0  0  0  0  0  0
    3.8276   -2.8595   -1.7114 H   0  0  0  0  0  0  0  0  0  0  0  0
    3.0986   -1.2512   -1.9808 H   0  0  0  0  0  0  0  0  0  0  0  0
    2.7936   -1.8836    0.7247 C   0  0  0  0  0  0  0  0  0  0  0  0
    2.4100   -2.2804    1.6841 H   0  0  0  0  0  0  0  0  0  0  0  0
    2.6883   -0.7858    0.7451 H   0  0  0  0  0  0  0  0  0  0  0  0
    3.8751   -2.1242    0.6822 H   0  0  0  0  0  0  0  0  0  0  0  0
   -1.1314   -4.4837    0.0154 C   0  0  0  0  0  0  0  0  0  0  0  0
   -2.0267   -5.1216   -0.1292 H   0  0  0  0  0  0  0  0  0  0  0  0
   -0.5430   -4.9213    0.8458 H   0  0  0  0  0  0  0  0  0  0  0  0
   -0.5320   -4.5463   -0.9118 H   0  0  0  0  0  0  0  0  0  0  0  0
   -2.4279   -3.1353    1.6204 C   0  0  0  0  0  0  0  0  0  0  0  0
   -1.7858   -3.3805    2.4917 H   0  0  0  0  0  0  0  0  0  0  0  0
   -3.1815   -3.9426    1.5206 H   0  0  0  0  0  0  0  0  0  0  0  0
   -2.9635   -2.2017    1.8582 H   0  0  0  0  0  0  0  0  0  0  0  0
   -2.4709   -2.5822   -0.8502 C   0  0  0  0  0  0  0  0  0  0  0  0
   -3.4435   -3.1142   -0.8316 H   0  0  0  0  0  0  0  0  0  0  0  0
   -1.9954   -2.8092   -1.8236 H   0  0  0  0  0  0  0  0  0  0  0  0
   -2.6733   -1.4986   -0.8147 H   0  0  0  0  0  0  0  0  0  0  0  0
  1  2  1  0  0  0  0
  1  5  1  0  0  0  0
  3  1  1  0  0  0  0
  4  1  1  0  0  0  0
  5  6  1  0  0  0  0
  5 16  1  0  0  0  0
  5  7  1  0  0  0  0
  7  9  1  0  0  0  0
  7  8  1  0  0  0  0
  9 10  1  0  0  0  0
 11  9  1  0  0  0  0
 12  9  1  0  0  0  0
 13 14  1  0  0  0  0
 13 15  1  0  0  0  0
 13  7  1  0  0  0  0
 16 13  1  0  0  0  0
 16 17  1  0  0  0  0
 16 18  1  0  0  0  0
 19 20  1  0  0  0  0
 19 23  1  0  0  0  0
 20 21  1  0  0  0  0
 21 24  1  0  0  0  0
 21 22  1  0  0  0  0
 22 25  1  0  0  0  0
 22 23  1  0  0  0  0
 26 29  2  0  0  0  0
 29 30  1  0  0  0  0
 27 30  2  0  0  0  0
 27 31  1  0  0  0  0
 28 31  2  0  0  0  0
 26 28  1  0  0  0  0
 30 32  1  0  0  0  0
 31 33  1  0  0  0  0
 23 26  1  0  0  0  0
 34 37  2  0  0  0  0
 37 38  1  0  0  0  0
 35 38  2  0  0  0  0
 35 39  1  0  0  0  0
 36 39  2  0  0  0  0
 34 36  1  0  0  0  0
 38 40  1  0  0  0  0
 39 41  1  0  0  0  0
 20 34  1  0  0  0  0
 42 43  1  0  0  0  0
 42 44  1  0  0  0  0
 42 45  1  0  0  0  0
 36 42  1  0  0  0  0
 46 47  1  0  0  0  0
 46 48  1  0  0  0  0
 46 49  1  0  0  0  0
 37 46  1  0  0  0  0
 50 51  1  0  0  0  0
 50 52  1  0  0  0  0
 50 53  1  0  0  0  0
 29 50  1  0  0  0  0
 54 55  1  0  0  0  0
 54 56  1  0  0  0  0
 54 57  1  0  0  0  0
 28 54  1  0  0  0  0
 58 59  1  0  0  0  0
 58 60  1  0  0  0  0
 58 61  1  0  0  0  0
 27 58  1  0  0  0  0
 62 63  1  0  0  0  0
 62 64  1  0  0  0  0
 62 65  1  0  0  0  0
 35 62  1  0  0  0  0
 22 66  1  0  0  0  0
 21 67  1  0  0  0  0
 68 69  1  0  0  0  0
 68 70  1  0  0  0  0
 68 71  1  0  0  0  0
 66 68  1  0  0  0  0
 72 73  1  0  0  0  0
 72 74  1  0  0  0  0
 72 75  1  0  0  0  0
 66 72  1  0  0  0  0
 76 77  1  0  0  0  0
 76 78  1  0  0  0  0
 76 79  1  0  0  0  0
 66 76  1  0  0  0  0
 80 81  1  0  0  0  0
 80 82  1  0  0  0  0
 80 83  1  0  0  0  0
 67 80  1  0  0  0  0
 84 85  1  0  0  0  0
 84 86  1  0  0  0  0
 84 87  1  0  0  0  0
 67 84  1  0  0  0  0
 88 89  1  0  0  0  0
 88 90  1  0  0  0  0
 88 91  1  0  0  0  0
 67 88  1  0  0  0  0
 16 19  1  0  0  0  0
M  END
>  <DFT-ENERGY>
-2449.50315513

$$$$
