
  CDK     08152412433D

 85 88  0  0  0  0  0  0  0  0999 V2000
    2.1312    1.2485   -0.2025 Ru  0  0  0  0  0  0  0  0  0  0  0  0
    3.7456    1.1416   -1.3076 C   0  0  0  0  0  0  0  0  0  0  0  0
    3.6113    1.4086   -2.3706 H   0  0  0  0  0  0  0  0  0  0  0  0
    4.0681    2.3830   -0.3827 C   0  0  0  0  0  0  0  0  0  0  0  0
    4.1905    3.2506   -1.0562 H   0  0  0  0  0  0  0  0  0  0  0  0
    2.9656    2.7880    0.6762 C   0  0  0  0  0  0  0  0  0  0  0  0
    3.2797    2.6247    1.7220 H   0  0  0  0  0  0  0  0  0  0  0  0
    2.4954    3.7631    0.4544 H   0  0  0  0  0  0  0  0  0  0  0  0
    4.9720    2.1172    0.1949 H   0  0  0  0  0  0  0  0  0  0  0  0
    4.3959    0.2725   -1.1011 H   0  0  0  0  0  0  0  0  0  0  0  0
    1.1988    2.7097   -1.8578 Cl  0  0  0  0  0  0  0  0  0  0  0  0
    3.1783   -0.1469    1.4420 Cl  0  0  0  0  0  0  0  0  0  0  0  0
    0.4171    0.2428   -0.0400 C   0  0  0  0  0  0  0  0  0  0  0  0
   -0.0355   -0.6539   -0.9453 N   0  0  0  0  0  0  0  0  0  0  0  0
   -1.3376   -1.2632   -0.5252 C   0  0  0  0  0  0  0  0  0  0  0  0
   -1.6569   -0.5029    0.8116 C   0  0  0  0  0  0  0  0  0  0  0  0
   -0.4490    0.3642    0.9913 N   0  0  0  0  0  0  0  0  0  0  0  0
   -2.1011   -0.9998   -1.2861 H   0  0  0  0  0  0  0  0  0  0  0  0
   -1.6835   -1.2315    1.6481 H   0  0  0  0  0  0  0  0  0  0  0  0
   -0.0505    1.0723    2.1919 C   0  0  0  0  0  0  0  0  0  0  0  0
    0.8596    2.4231    4.5112 C   0  0  0  0  0  0  0  0  0  0  0  0
    0.3744    0.3279    3.3226 C   0  0  0  0  0  0  0  0  0  0  0  0
   -0.0268    2.4900    2.2108 C   0  0  0  0  0  0  0  0  0  0  0  0
    0.4430    3.1291    3.3759 C   0  0  0  0  0  0  0  0  0  0  0  0
    0.8061    1.0200    4.4623 C   0  0  0  0  0  0  0  0  0  0  0  0
    0.4718    4.2299    3.3863 H   0  0  0  0  0  0  0  0  0  0  0  0
    1.1465    0.4342    5.3303 H   0  0  0  0  0  0  0  0  0  0  0  0
    0.5980   -0.7515   -2.2456 C   0  0  0  0  0  0  0  0  0  0  0  0
    1.8751   -0.8077   -4.7752 C   0  0  0  0  0  0  0  0  0  0  0  0
    1.8365   -1.4270   -2.3883 C   0  0  0  0  0  0  0  0  0  0  0  0
   -0.0052   -0.1073   -3.3567 C   0  0  0  0  0  0  0  0  0  0  0  0
    0.6393   -0.1624   -4.5999 C   0  0  0  0  0  0  0  0  0  0  0  0
    2.4499   -1.4249   -3.6575 C   0  0  0  0  0  0  0  0  0  0  0  0
    0.1706    0.3515   -5.4535 H   0  0  0  0  0  0  0  0  0  0  0  0
    3.4172   -1.9399   -3.7653 H   0  0  0  0  0  0  0  0  0  0  0  0
    2.5111   -2.2046   -1.2877 C   0  0  0  0  0  0  0  0  0  0  0  0
    3.5907   -2.3081   -1.5069 H   0  0  0  0  0  0  0  0  0  0  0  0
    2.0945   -3.2323   -1.2248 H   0  0  0  0  0  0  0  0  0  0  0  0
    2.4293   -1.7341   -0.2909 H   0  0  0  0  0  0  0  0  0  0  0  0
   -1.2822    0.6743   -3.2288 C   0  0  0  0  0  0  0  0  0  0  0  0
   -1.2141    1.3819   -2.3818 H   0  0  0  0  0  0  0  0  0  0  0  0
   -2.1646    0.0185   -3.0718 H   0  0  0  0  0  0  0  0  0  0  0  0
   -1.4671    1.2628   -4.1463 H   0  0  0  0  0  0  0  0  0  0  0  0
   -0.5327    3.3625    1.0911 C   0  0  0  0  0  0  0  0  0  0  0  0
   -0.0755    4.3677    1.1607 H   0  0  0  0  0  0  0  0  0  0  0  0
   -1.6318    3.5015    1.1716 H   0  0  0  0  0  0  0  0  0  0  0  0
   -0.3032    2.9748    0.0819 H   0  0  0  0  0  0  0  0  0  0  0  0
    0.4235   -1.1739    3.3161 C   0  0  0  0  0  0  0  0  0  0  0  0
    0.9840   -1.5448    4.1939 H   0  0  0  0  0  0  0  0  0  0  0  0
    0.9398   -1.5361    2.4081 H   0  0  0  0  0  0  0  0  0  0  0  0
   -0.5892   -1.6290    3.3527 H   0  0  0  0  0  0  0  0  0  0  0  0
    1.3717    3.1331    5.7382 C   0  0  0  0  0  0  0  0  0  0  0  0
    2.4489    2.9186    5.8996 H   0  0  0  0  0  0  0  0  0  0  0  0
    0.8376    2.7989    6.6512 H   0  0  0  0  0  0  0  0  0  0  0  0
    1.2545    4.2303    5.6539 H   0  0  0  0  0  0  0  0  0  0  0  0
    2.5604   -0.8095   -6.1176 C   0  0  0  0  0  0  0  0  0  0  0  0
    2.8532    0.2193   -6.4147 H   0  0  0  0  0  0  0  0  0  0  0  0
    1.8901   -1.1948   -6.9130 H   0  0  0  0  0  0  0  0  0  0  0  0
    3.4753   -1.4322   -6.1082 H   0  0  0  0  0  0  0  0  0  0  0  0
   -3.0044    0.2978    0.8638 C   0  0  0  0  0  0  0  0  0  0  0  0
   -1.2911   -2.8292   -0.4527 C   0  0  0  0  0  0  0  0  0  0  0  0
   -4.2047   -0.6518    0.7060 C   0  0  0  0  0  0  0  0  0  0  0  0
   -5.1395   -0.0585    0.7631 H   0  0  0  0  0  0  0  0  0  0  0  0
   -4.2439   -1.4122    1.5112 H   0  0  0  0  0  0  0  0  0  0  0  0
   -4.2065   -1.1737   -0.2692 H   0  0  0  0  0  0  0  0  0  0  0  0
   -3.1470    0.9636    2.2486 C   0  0  0  0  0  0  0  0  0  0  0  0
   -3.0003    0.2266    3.0652 H   0  0  0  0  0  0  0  0  0  0  0  0
   -4.1682    1.3827    2.3531 H   0  0  0  0  0  0  0  0  0  0  0  0
   -2.4275    1.7839    2.4104 H   0  0  0  0  0  0  0  0  0  0  0  0
   -3.0860    1.3545   -0.2486 C   0  0  0  0  0  0  0  0  0  0  0  0
   -3.2723    0.8903   -1.2358 H   0  0  0  0  0  0  0  0  0  0  0  0
   -2.1624    1.9543   -0.3214 H   0  0  0  0  0  0  0  0  0  0  0  0
   -3.9285    2.0473   -0.0504 H   0  0  0  0  0  0  0  0  0  0  0  0
   -2.6645   -3.3936   -0.0495 C   0  0  0  0  0  0  0  0  0  0  0  0
   -2.6026   -4.5003   -0.0255 H   0  0  0  0  0  0  0  0  0  0  0  0
   -3.4568   -3.1207   -0.7747 H   0  0  0  0  0  0  0  0  0  0  0  0
   -2.9809   -3.0610    0.9569 H   0  0  0  0  0  0  0  0  0  0  0  0
   -0.9761   -3.3938   -1.8539 C   0  0  0  0  0  0  0  0  0  0  0  0
   -1.6628   -2.9752   -2.6187 H   0  0  0  0  0  0  0  0  0  0  0  0
   -1.1110   -4.4943   -1.8472 H   0  0  0  0  0  0  0  0  0  0  0  0
    0.0547   -3.1821   -2.1842 H   0  0  0  0  0  0  0  0  0  0  0  0
   -0.2558   -3.3248    0.5688 C   0  0  0  0  0  0  0  0  0  0  0  0
   -0.0859   -4.4125    0.4372 H   0  0  0  0  0  0  0  0  0  0  0  0
   -0.6070   -3.1741    1.6075 H   0  0  0  0  0  0  0  0  0  0  0  0
    0.7158   -2.8130    0.4585 H   0  0  0  0  0  0  0  0  0  0  0  0
  2  4  1  0  0  0  0
  2  1  1  0  0  0  0
  2  3  1  0  0  0  0
  4  6  1  0  0  0  0
  4  5  1  0  0  0  0
  6  1  1  0  0  0  0
  6  8  1  0  0  0  0
  7  6  1  0  0  0  0
  9  4  1  0  0  0  0
 10  2  1  0  0  0  0
  1 11  1  0  0  0  0
  1 12  1  0  0  0  0
 13 14  1  0  0  0  0
 13 17  1  0  0  0  0
 14 15  1  0  0  0  0
 15 18  1  0  0  0  0
 15 16  1  0  0  0  0
 16 19  1  0  0  0  0
 16 17  1  0  0  0  0
 20 23  2  0  0  0  0
 23 24  1  0  0  0  0
 21 24  2  0  0  0  0
 21 25  1  0  0  0  0
 22 25  2  0  0  0  0
 20 22  1  0  0  0  0
 24 26  1  0  0  0  0
 25 27  1  0  0  0  0
 17 20  1  0  0  0  0
 28 31  2  0  0  0  0
 31 32  1  0  0  0  0
 29 32  2  0  0  0  0
 29 33  1  0  0  0  0
 30 33  2  0  0  0  0
 28 30  1  0  0  0  0
 32 34  1  0  0  0  0
 33 35  1  0  0  0  0
 14 28  1  0  0  0  0
 36 37  1  0  0  0  0
 36 38  1  0  0  0  0
 36 39  1  0  0  0  0
 30 36  1  0  0  0  0
 40 41  1  0  0  0  0
 40 42  1  0  0  0  0
 40 43  1  0  0  0  0
 31 40  1  0  0  0  0
 44 45  1  0  0  0  0
 44 46  1  0  0  0  0
 44 47  1  0  0  0  0
 23 44  1  0  0  0  0
 48 49  1  0  0  0  0
 48 50  1  0  0  0  0
 48 51  1  0  0  0  0
 22 48  1  0  0  0  0
 52 53  1  0  0  0  0
 52 54  1  0  0  0  0
 52 55  1  0  0  0  0
 21 52  1  0  0  0  0
 56 57  1  0  0  0  0
 56 58  1  0  0  0  0
 56 59  1  0  0  0  0
 29 56  1  0  0  0  0
 16 60  1  0  0  0  0
 15 61  1  0  0  0  0
 62 63  1  0  0  0  0
 62 64  1  0  0  0  0
 62 65  1  0  0  0  0
 60 62  1  0  0  0  0
 66 67  1  0  0  0  0
 66 68  1  0  0  0  0
 66 69  1  0  0  0  0
 60 66  1  0  0  0  0
 70 71  1  0  0  0  0
 70 72  1  0  0  0  0
 70 73  1  0  0  0  0
 60 70  1  0  0  0  0
 74 75  1  0  0  0  0
 74 76  1  0  0  0  0
 74 77  1  0  0  0  0
 61 74  1  0  0  0  0
 78 79  1  0  0  0  0
 78 80  1  0  0  0  0
 78 81  1  0  0  0  0
 61 78  1  0  0  0  0
 82 83  1  0  0  0  0
 82 84  1  0  0  0  0
 82 85  1  0  0  0  0
 61 82  1  0  0  0  0
  1 13  1  0  0  0  0
M  END
>  <DFT-ENERGY>
-2370.99751787

$$$$
