tBuSIMes-4_A2
  CDK     08122417583D

 99103  0  0  0  0  0  0  0  0999 V2000
   -1.5472    1.0544    0.1833 Ru  0  0  0  0  0  0  0  0  0  0  0  0
   -3.3250    2.4436    0.1833 O   0  0  0  0  0  0  0  0  0  0  0  0
   -2.7574    0.0503   -0.7500 C   0  0  0  0  0  0  0  0  0  0  0  0
   -2.5246   -0.9724   -1.0429 H   0  0  0  0  0  0  0  0  0  0  0  0
   -3.5605    3.6694    0.9585 C   0  0  0  0  0  0  0  0  0  0  0  0
   -4.0385    4.4041    0.2734 H   0  0  0  0  0  0  0  0  0  0  0  0
   -2.1400    4.0633    1.3175 C   0  0  0  0  0  0  0  0  0  0  0  0
   -1.4866    4.0334    0.4181 H   0  0  0  0  0  0  0  0  0  0  0  0
   -2.0824    5.0671    1.7445 H   0  0  0  0  0  0  0  0  0  0  0  0
   -1.6984    3.3457    2.0447 H   0  0  0  0  0  0  0  0  0  0  0  0
   -4.4346    3.3159    2.1484 C   0  0  0  0  0  0  0  0  0  0  0  0
   -4.4175    4.0968    2.9148 H   0  0  0  0  0  0  0  0  0  0  0  0
   -5.4767    3.1350    1.8645 H   0  0  0  0  0  0  0  0  0  0  0  0
   -4.0721    2.3827    2.6229 H   0  0  0  0  0  0  0  0  0  0  0  0
   -4.3172    1.9386   -0.6151 C   0  0  0  0  0  0  0  0  0  0  0  0
   -5.4863    2.5916   -0.9638 C   0  0  0  0  0  0  0  0  0  0  0  0
   -5.7046    3.5972   -0.6113 H   0  0  0  0  0  0  0  0  0  0  0  0
   -6.3875    1.9341   -1.7949 C   0  0  0  0  0  0  0  0  0  0  0  0
   -7.3103    2.4429   -2.0820 H   0  0  0  0  0  0  0  0  0  0  0  0
   -6.1375    0.6488   -2.2665 C   0  0  0  0  0  0  0  0  0  0  0  0
   -6.8625    0.1545   -2.9107 H   0  0  0  0  0  0  0  0  0  0  0  0
   -4.9678    0.0072   -1.9062 C   0  0  0  0  0  0  0  0  0  0  0  0
   -4.7746   -1.0041   -2.2608 H   0  0  0  0  0  0  0  0  0  0  0  0
   -4.0323    0.6466   -1.0908 C   0  0  0  0  0  0  0  0  0  0  0  0
   -2.1485    0.4926    2.3813 Cl  0  0  0  0  0  0  0  0  0  0  0  0
   -0.7016    2.4508   -1.5693 Cl  0  0  0  0  0  0  0  0  0  0  0  0
    0.1445   -0.0190    0.1112 C   0  0  0  0  0  0  0  0  0  0  0  0
    0.3942   -1.3542   -0.1891 N   0  0  0  0  0  0  0  0  0  0  0  0
    1.8081   -1.8104    0.1172 C   0  0  0  0  0  0  0  0  0  0  0  0
    2.4346   -0.5304    0.7648 C   0  0  0  0  0  0  0  0  0  0  0  0
    1.3727    0.5198    0.5157 N   0  0  0  0  0  0  0  0  0  0  0  0
    1.7175   -2.6241    0.8893 H   0  0  0  0  0  0  0  0  0  0  0  0
    3.3648   -0.2231    0.2270 H   0  0  0  0  0  0  0  0  0  0  0  0
    1.6998    1.9259    0.6430 C   0  0  0  0  0  0  0  0  0  0  0  0
    2.5701    4.6050    0.9165 C   0  0  0  0  0  0  0  0  0  0  0  0
    2.4636    2.5475   -0.3851 C   0  0  0  0  0  0  0  0  0  0  0  0
    1.3125    2.6931    1.7646 C   0  0  0  0  0  0  0  0  0  0  0  0
    1.7616    4.0191    1.8931 C   0  0  0  0  0  0  0  0  0  0  0  0
    2.9082    3.8637   -0.2246 C   0  0  0  0  0  0  0  0  0  0  0  0
    1.4649    4.5950    2.7666 H   0  0  0  0  0  0  0  0  0  0  0  0
    3.5023    4.3282   -1.0088 H   0  0  0  0  0  0  0  0  0  0  0  0
   -0.5478   -2.3126   -0.7125 C   0  0  0  0  0  0  0  0  0  0  0  0
   -2.1375   -4.3845   -1.7495 C   0  0  0  0  0  0  0  0  0  0  0  0
   -0.9217   -2.2956   -2.0806 C   0  0  0  0  0  0  0  0  0  0  0  0
   -1.0788   -3.2989    0.1566 C   0  0  0  0  0  0  0  0  0  0  0  0
   -1.8478   -4.3390   -0.3787 C   0  0  0  0  0  0  0  0  0  0  0  0
   -1.6973   -3.3492   -2.5844 C   0  0  0  0  0  0  0  0  0  0  0  0
   -2.2381   -5.1118    0.2803 H   0  0  0  0  0  0  0  0  0  0  0  0
   -1.9657   -3.3557   -3.6389 H   0  0  0  0  0  0  0  0  0  0  0  0
   -0.5608   -1.1588   -2.9760 C   0  0  0  0  0  0  0  0  0  0  0  0
   -1.0977   -1.1758   -3.9320 H   0  0  0  0  0  0  0  0  0  0  0  0
    0.5215   -1.1445   -3.2054 H   0  0  0  0  0  0  0  0  0  0  0  0
   -0.7857   -0.1758   -2.5047 H   0  0  0  0  0  0  0  0  0  0  0  0
   -0.8839   -3.1997    1.6317 C   0  0  0  0  0  0  0  0  0  0  0  0
   -1.4022   -2.2925    2.0130 H   0  0  0  0  0  0  0  0  0  0  0  0
    0.1764   -3.0879    1.9201 H   0  0  0  0  0  0  0  0  0  0  0  0
   -1.2904   -4.0565    2.1807 H   0  0  0  0  0  0  0  0  0  0  0  0
    0.4164    2.1697    2.8317 C   0  0  0  0  0  0  0  0  0  0  0  0
    0.7284    2.4672    3.8398 H   0  0  0  0  0  0  0  0  0  0  0  0
    0.3344    1.0623    2.8319 H   0  0  0  0  0  0  0  0  0  0  0  0
   -0.6192    2.5564    2.6899 H   0  0  0  0  0  0  0  0  0  0  0  0
    2.7765    1.8453   -1.6626 C   0  0  0  0  0  0  0  0  0  0  0  0
    3.3513    2.4651   -2.3615 H   0  0  0  0  0  0  0  0  0  0  0  0
    1.8308    1.5830   -2.1770 H   0  0  0  0  0  0  0  0  0  0  0  0
    3.3397    0.9104   -1.5035 H   0  0  0  0  0  0  0  0  0  0  0  0
    3.0546    6.0108    1.0637 C   0  0  0  0  0  0  0  0  0  0  0  0
    2.5289    6.6771    0.3625 H   0  0  0  0  0  0  0  0  0  0  0  0
    4.1283    6.0954    0.8467 H   0  0  0  0  0  0  0  0  0  0  0  0
    2.8952    6.4124    2.0724 H   0  0  0  0  0  0  0  0  0  0  0  0
   -2.9416   -5.5160   -2.3020 C   0  0  0  0  0  0  0  0  0  0  0  0
   -3.9871   -5.4561   -1.9636 H   0  0  0  0  0  0  0  0  0  0  0  0
   -2.5511   -6.4891   -1.9724 H   0  0  0  0  0  0  0  0  0  0  0  0
   -2.9585   -5.5308   -3.3995 H   0  0  0  0  0  0  0  0  0  0  0  0
    2.7995   -0.7381    2.2839 C   0  0  0  0  0  0  0  0  0  0  0  0
    2.6365   -2.4235   -1.0697 C   0  0  0  0  0  0  0  0  0  0  0  0
    3.8002   -1.9072    2.4168 C   0  0  0  0  0  0  0  0  0  0  0  0
    4.0625   -2.0705    3.4691 H   0  0  0  0  0  0  0  0  0  0  0  0
    4.7349   -1.7054    1.8836 H   0  0  0  0  0  0  0  0  0  0  0  0
    3.3908   -2.8530    2.0466 H   0  0  0  0  0  0  0  0  0  0  0  0
    3.5042    0.5148    2.8302 C   0  0  0  0  0  0  0  0  0  0  0  0
    4.2274    0.9255    2.1187 H   0  0  0  0  0  0  0  0  0  0  0  0
    4.0453    0.2965    3.7576 H   0  0  0  0  0  0  0  0  0  0  0  0
    2.8006    1.3175    3.0708 H   0  0  0  0  0  0  0  0  0  0  0  0
    1.5575   -1.0771    3.1175 C   0  0  0  0  0  0  0  0  0  0  0  0
    1.1365   -2.0577    2.8540 H   0  0  0  0  0  0  0  0  0  0  0  0
    0.7429   -0.3413    2.9682 H   0  0  0  0  0  0  0  0  0  0  0  0
    1.7827   -1.0914    4.1882 H   0  0  0  0  0  0  0  0  0  0  0  0
    4.0421   -2.8012   -0.5499 C   0  0  0  0  0  0  0  0  0  0  0  0
    4.6517   -3.2250   -1.3570 H   0  0  0  0  0  0  0  0  0  0  0  0
    3.9949   -3.5566    0.2416 H   0  0  0  0  0  0  0  0  0  0  0  0
    4.5906   -1.9355   -0.1646 H   0  0  0  0  0  0  0  0  0  0  0  0
    1.9744   -3.7218   -1.5670 C   0  0  0  0  0  0  0  0  0  0  0  0
    1.5557   -4.3160   -0.7486 H   0  0  0  0  0  0  0  0  0  0  0  0
    2.6914   -4.3582   -2.0973 H   0  0  0  0  0  0  0  0  0  0  0  0
    1.1595   -3.5280   -2.2732 H   0  0  0  0  0  0  0  0  0  0  0  0
    2.8167   -1.4496   -2.2369 C   0  0  0  0  0  0  0  0  0  0  0  0
    3.3165   -1.9290   -3.0851 H   0  0  0  0  0  0  0  0  0  0  0  0
    3.4211   -0.5747   -1.9521 H   0  0  0  0  0  0  0  0  0  0  0  0
    1.8489   -1.0663   -2.6003 H   0  0  0  0  0  0  0  0  0  0  0  0
  2  1  1  0  0  0  0
  3  1  2  0  0  0  0
  4  3  1  0  0  0  0
  5  2  1  0  0  0  0
  6  5  1  0  0  0  0
  7  5  1  0  0  0  0
  8  7  1  0  0  0  0
  9  7  1  0  0  0  0
 10  7  1  0  0  0  0
 11  5  1  0  0  0  0
 12 11  1  0  0  0  0
 13 11  1  0  0  0  0
 14 11  1  0  0  0  0
 15  2  1  0  0  0  0
 15 24  1  0  0  0  0
 16 15  2  0  0  0  0
 17 16  1  0  0  0  0
 18 16  1  0  0  0  0
 19 18  1  0  0  0  0
 20 18  2  0  0  0  0
 21 20  1  0  0  0  0
 22 20  1  0  0  0  0
 22 24  2  0  0  0  0
 23 22  1  0  0  0  0
 24  3  1  0  0  0  0
  1 25  1  0  0  0  0
  1 26  1  0  0  0  0
 27 28  1  0  0  0  0
 27 31  1  0  0  0  0
 28 29  1  0  0  0  0
 29 32  1  0  0  0  0
 29 30  1  0  0  0  0
 30 33  1  0  0  0  0
 30 31  1  0  0  0  0
 34 37  2  0  0  0  0
 37 38  1  0  0  0  0
 35 38  2  0  0  0  0
 35 39  1  0  0  0  0
 36 39  2  0  0  0  0
 34 36  1  0  0  0  0
 38 40  1  0  0  0  0
 39 41  1  0  0  0  0
 31 34  1  0  0  0  0
 42 45  2  0  0  0  0
 45 46  1  0  0  0  0
 43 46  2  0  0  0  0
 43 47  1  0  0  0  0
 44 47  2  0  0  0  0
 42 44  1  0  0  0  0
 46 48  1  0  0  0  0
 47 49  1  0  0  0  0
 28 42  1  0  0  0  0
 50 51  1  0  0  0  0
 50 52  1  0  0  0  0
 50 53  1  0  0  0  0
 44 50  1  0  0  0  0
 54 55  1  0  0  0  0
 54 56  1  0  0  0  0
 54 57  1  0  0  0  0
 45 54  1  0  0  0  0
 58 59  1  0  0  0  0
 58 60  1  0  0  0  0
 58 61  1  0  0  0  0
 37 58  1  0  0  0  0
 62 63  1  0  0  0  0
 62 64  1  0  0  0  0
 62 65  1  0  0  0  0
 36 62  1  0  0  0  0
 66 67  1  0  0  0  0
 66 68  1  0  0  0  0
 66 69  1  0  0  0  0
 35 66  1  0  0  0  0
 70 71  1  0  0  0  0
 70 72  1  0  0  0  0
 70 73  1  0  0  0  0
 43 70  1  0  0  0  0
 30 74  1  0  0  0  0
 29 75  1  0  0  0  0
 76 77  1  0  0  0  0
 76 78  1  0  0  0  0
 76 79  1  0  0  0  0
 74 76  1  0  0  0  0
 80 81  1  0  0  0  0
 80 82  1  0  0  0  0
 80 83  1  0  0  0  0
 74 80  1  0  0  0  0
 84 85  1  0  0  0  0
 84 86  1  0  0  0  0
 84 87  1  0  0  0  0
 74 84  1  0  0  0  0
 88 89  1  0  0  0  0
 88 90  1  0  0  0  0
 88 91  1  0  0  0  0
 75 88  1  0  0  0  0
 92 93  1  0  0  0  0
 92 94  1  0  0  0  0
 92 95  1  0  0  0  0
 75 92  1  0  0  0  0
 96 97  1  0  0  0  0
 96 98  1  0  0  0  0
 96 99  1  0  0  0  0
 75 96  1  0  0  0  0
  1 27  1  0  0  0  0
M  END
> <FrozenCore-PM6_ENERGY>
-142.211

> <RMSD_CONF_CG-CS>
0.420603

> <RMSD_CONF_GO-CS>
0.000000

> <UID>


> <DESCRIPTOR_DEFINITION_1>
desc1=( echo "1 * ( e( $hartree_to_kcalmol * ( ( $freeEnergyZ - $freeEnergyD ) - ( $freeEnergyX + 2*$G_Ethene - $freeEnergyD - 2*$G_Propene ) - $DDG_reference_HGII ) / $kT ) ) " | bc -l )

> <DESCRIPTOR_DEFINITION_2>
desc1=( echo "1 * ( e( $hartree_to_kcalmol * ( ( $freeEnergyZ - $freeEnergyD ) - ( $freeEnergyX + 2*$G_Ethene - $freeEnergyD - 2*$G_Propene ) - $DDG_reference_HGII ) / $kT ) ) " | bc -l )

> <DESCRIPTOR_DEFINITION_3>
desc1=( echo "1 * ( e( $hartree_to_kcalmol * ( ( $freeEnergyZ - $freeEnergyD ) - ( $freeEnergyX + 2*$G_Ethene - $freeEnergyD - 2*$G_Propene ) - $DDG_reference_HGII ) / $kT ) ) " | bc -l )

> <WEIGHT_DEFINITION_1>
w1=$( echo "1 / ( 1 + e( $hartree_to_kcalmol * ( ( ( $freeEnergyX + 2*$G_Ethene - $freeEnergyD - 2*$G_Propene ) ) - ( $DG_referenceProductionBarrier + $magnitude4 ) ) / $kT ) )" | bc -l )

> <WEIGHT_DEFINITION_2>
w1=$( echo "1 / ( 1 + e( $hartree_to_kcalmol * ( ( ( $freeEnergyX + 2*$G_Ethene - $freeEnergyD - 2*$G_Propene ) ) - ( $DG_referenceProductionBarrier + $magnitude4 ) ) / $kT ) )" | bc -l )

> <WEIGHT_DEFINITION_3>
w1=$( echo "1 / ( 1 + e( $hartree_to_kcalmol * ( ( ( $freeEnergyX + 2*$G_Ethene - $freeEnergyD - 2*$G_Propene ) ) - ( $DG_referenceProductionBarrier + $magnitude4 ) ) / $kT ) )" | bc -l )

> <WEIGHT_DEFINITION_4>
w1=$( echo "1 / ( 1 + e( $hartree_to_kcalmol * ( ( ( $freeEnergyX + 2*$G_Ethene - $freeEnergyD - 2*$G_Propene ) ) - ( $DG_referenceProductionBarrier + $magnitude4 ) ) / $kT ) )" | bc -l )

> <CALCULATION_OF_OVERALL_FITNESS>
fitness=$( echo "( $desc1 + $desc2 + $desc3 ) * ( $w1 * $w2 * $w3 * $w4 )" | bc -l )

> <freeEnergyA>
-2716.21241971

> <freeEnergyF>
-2716.20394589

> <freeEnergyE>
-2716.21241971

> <freeEnergyC>
-2370.96942265

> <freeEnergyL>
-1238.36134802

> <freeEnergyX>
-2449.50315497

> <freeEnergyZ>
-2370.95322094

> <freeEnergyD>
-2370.99751776

> <G_Propene>
-117.738020895

> <G_Ethene>
-78.4716324751

> <G_HoveydaProd>
-502.204109499

> <G_SIMes>
-924.27249048

> <G_HG_RuCl2_SIMes>
-2402.13728523

> <DG_referenceProductionBarrier>
0.01468968

> <DG_referencePrecursorStabilityHII>
-0.0052201621

> <DG_referencePrecursorStabilityHI>
0.0117775312

> <DDG_referencePrecursorStability>
.0169976933

> <DG_referenceSynt>
0.0226072217

> <hartree_to_kcalmol>
627.49467516

> <boltzmann_constant>
0.0000000000000000000000138066

> <avogadro_number>
602214000000000000000000

> <jmol_to_kcalmol>
0.00023901

> <temp>
313.15

> <kT>
.6223089948281258706000000000

> <magnitude1>
1.43290809

> <magnitude2>
2.86581618

> <magnitude3>
4.29872427

> <magnitude4>
5.73163236

> <DFT_IDENTIFIER>
1723722049430

> <DFT_MACHINE>
158.39.114.73

> <XTB_IDENTIFIER>
NREC

> <XTB_MACHINE>
NREC

> <DESCRIPTOR_1>
.00599766936348035461

> <DESCRIPTOR_2>
10.766045491207335432

> <DESCRIPTOR_3>
0.0000000001

> <WEIGHT_1>
.98663282637628325780

> <WEIGHT_2>
.99878203071483285965

> <WEIGHT_3>
.99998713205439064440

> <WEIGHT_4>
.98090966664381697376

> <FITNESS>
10.41232683587116247038

$$$$
