
  CDK     08152404223D

 85 89  0  0  0  0  0  0  0  0999 V2000
   -2.4613    2.8076    1.0122 H   0  0  0  0  0  0  0  0  0  0  0  0
   -3.6791    2.6639    1.1140 C   0  0  0  0  0  0  0  0  0  0  0  0
   -3.7772    3.7683    1.1956 H   0  0  0  0  0  0  0  0  0  0  0  0
   -3.7505    1.7459    2.2904 C   0  0  0  0  0  0  0  0  0  0  0  0
   -4.6132    1.0625    2.3522 H   0  0  0  0  0  0  0  0  0  0  0  0
   -3.3944    2.1534    3.2521 H   0  0  0  0  0  0  0  0  0  0  0  0
   -2.2894    1.0422    1.0093 Ru  0  0  0  0  0  0  0  0  0  0  0  0
   -3.8696    1.9327   -0.1479 C   0  0  0  0  0  0  0  0  0  0  0  0
   -4.7073    1.2308   -0.2401 H   0  0  0  0  0  0  0  0  0  0  0  0
   -3.5521    2.4337   -1.0784 H   0  0  0  0  0  0  0  0  0  0  0  0
   -3.7343   -0.8788    0.5533 Cl  0  0  0  0  0  0  0  0  0  0  0  0
   -0.6124    2.2805    2.1967 Cl  0  0  0  0  0  0  0  0  0  0  0  0
   -1.0368   -0.5707    1.3163 C   0  0  0  0  0  0  0  0  0  0  0  0
   -0.4867   -1.1470    0.2197 N   0  0  0  0  0  0  0  0  0  0  0  0
    0.4070   -2.2938    0.5457 C   0  0  0  0  0  0  0  0  0  0  0  0
    0.2793   -2.3643    2.1084 C   0  0  0  0  0  0  0  0  0  0  0  0
   -0.5788   -1.1743    2.4361 N   0  0  0  0  0  0  0  0  0  0  0  0
   -0.0384   -3.2117    0.1120 H   0  0  0  0  0  0  0  0  0  0  0  0
    1.2749   -2.2205    2.5752 H   0  0  0  0  0  0  0  0  0  0  0  0
   -0.7256   -0.6086    3.7641 C   0  0  0  0  0  0  0  0  0  0  0  0
   -0.9449    0.5465    6.3503 C   0  0  0  0  0  0  0  0  0  0  0  0
    0.4037   -0.0015    4.3716 C   0  0  0  0  0  0  0  0  0  0  0  0
   -1.9704   -0.6322    4.4398 C   0  0  0  0  0  0  0  0  0  0  0  0
   -2.0471   -0.0397    5.7157 C   0  0  0  0  0  0  0  0  0  0  0  0
    0.2751    0.5453    5.6570 C   0  0  0  0  0  0  0  0  0  0  0  0
   -3.0193   -0.0555    6.2330 H   0  0  0  0  0  0  0  0  0  0  0  0
    1.1584    1.0199    6.1124 H   0  0  0  0  0  0  0  0  0  0  0  0
   -0.9363   -0.6886   -1.0742 C   0  0  0  0  0  0  0  0  0  0  0  0
   -2.1070    0.3439   -3.4397 C   0  0  0  0  0  0  0  0  0  0  0  0
   -0.6386    0.6408   -1.4810 C   0  0  0  0  0  0  0  0  0  0  0  0
   -1.7512   -1.5269   -1.8805 C   0  0  0  0  0  0  0  0  0  0  0  0
   -2.3073   -0.9935   -3.0497 C   0  0  0  0  0  0  0  0  0  0  0  0
   -1.2628    1.1306   -2.6501 C   0  0  0  0  0  0  0  0  0  0  0  0
   -2.9573   -1.6411   -3.6587 H   0  0  0  0  0  0  0  0  0  0  0  0
   -1.0461    2.1660   -2.9565 H   0  0  0  0  0  0  0  0  0  0  0  0
    0.4453    1.4980   -0.8708 C   0  0  0  0  0  0  0  0  0  0  0  0
    0.5951    1.3426    0.2089 H   0  0  0  0  0  0  0  0  0  0  0  0
    0.2098    2.5702   -1.0040 H   0  0  0  0  0  0  0  0  0  0  0  0
    1.4055    1.3004   -1.3962 H   0  0  0  0  0  0  0  0  0  0  0  0
   -2.0619   -2.9494   -1.5027 C   0  0  0  0  0  0  0  0  0  0  0  0
   -2.3785   -3.0064   -0.4456 H   0  0  0  0  0  0  0  0  0  0  0  0
   -1.1864   -3.6184   -1.6477 H   0  0  0  0  0  0  0  0  0  0  0  0
   -2.8857   -3.3430   -2.1264 H   0  0  0  0  0  0  0  0  0  0  0  0
   -3.2052   -1.3081    3.9112 C   0  0  0  0  0  0  0  0  0  0  0  0
   -4.1071   -0.8668    4.3770 H   0  0  0  0  0  0  0  0  0  0  0  0
   -3.2043   -2.3881    4.1738 H   0  0  0  0  0  0  0  0  0  0  0  0
   -3.3151   -1.2264    2.8157 H   0  0  0  0  0  0  0  0  0  0  0  0
    1.7252    0.1271    3.6668 C   0  0  0  0  0  0  0  0  0  0  0  0
    2.3535    0.8891    4.1645 H   0  0  0  0  0  0  0  0  0  0  0  0
    1.5795    0.4403    2.6174 H   0  0  0  0  0  0  0  0  0  0  0  0
    2.3013   -0.8232    3.6683 H   0  0  0  0  0  0  0  0  0  0  0  0
   -1.0638    1.1852    7.7106 C   0  0  0  0  0  0  0  0  0  0  0  0
   -0.2563    0.8457    8.3907 H   0  0  0  0  0  0  0  0  0  0  0  0
   -2.0354    0.9520    8.1869 H   0  0  0  0  0  0  0  0  0  0  0  0
   -0.9814    2.2905    7.6392 H   0  0  0  0  0  0  0  0  0  0  0  0
   -2.7872    0.8984   -4.6650 C   0  0  0  0  0  0  0  0  0  0  0  0
   -2.6486    0.2341   -5.5421 H   0  0  0  0  0  0  0  0  0  0  0  0
   -2.4007    1.9016   -4.9280 H   0  0  0  0  0  0  0  0  0  0  0  0
   -3.8817    0.9907   -4.5014 H   0  0  0  0  0  0  0  0  0  0  0  0
   -0.3125   -3.7026    2.6753 C   0  0  0  0  0  0  0  0  0  0  0  0
    1.8484   -2.1757   -0.0655 C   0  0  0  0  0  0  0  0  0  0  0  0
    0.5972   -4.8885    2.3082 C   0  0  0  0  0  0  0  0  0  0  0  0
    0.1628   -5.8161    2.7325 H   0  0  0  0  0  0  0  0  0  0  0  0
    1.6171   -4.7765    2.7280 H   0  0  0  0  0  0  0  0  0  0  0  0
    0.6822   -5.0376    1.2155 H   0  0  0  0  0  0  0  0  0  0  0  0
   -0.3511   -3.6428    4.2164 C   0  0  0  0  0  0  0  0  0  0  0  0
    0.6351   -3.3471    4.6308 H   0  0  0  0  0  0  0  0  0  0  0  0
   -0.5974   -4.6470    4.6171 H   0  0  0  0  0  0  0  0  0  0  0  0
   -1.0984   -2.9314    4.6041 H   0  0  0  0  0  0  0  0  0  0  0  0
   -1.7163   -3.9793    2.1100 C   0  0  0  0  0  0  0  0  0  0  0  0
   -1.6648   -4.3330    1.0613 H   0  0  0  0  0  0  0  0  0  0  0  0
   -2.3665   -3.0866    2.1335 H   0  0  0  0  0  0  0  0  0  0  0  0
   -2.2085   -4.7816    2.6958 H   0  0  0  0  0  0  0  0  0  0  0  0
    2.6570   -3.4475    0.2453 C   0  0  0  0  0  0  0  0  0  0  0  0
    3.6644   -3.3541   -0.2081 H   0  0  0  0  0  0  0  0  0  0  0  0
    2.1836   -4.3559   -0.1779 H   0  0  0  0  0  0  0  0  0  0  0  0
    2.7973   -3.6018    1.3318 H   0  0  0  0  0  0  0  0  0  0  0  0
    1.7479   -2.0699   -1.6016 C   0  0  0  0  0  0  0  0  0  0  0  0
    1.1179   -2.8788   -2.0253 H   0  0  0  0  0  0  0  0  0  0  0  0
    2.7601   -2.1681   -2.0435 H   0  0  0  0  0  0  0  0  0  0  0  0
    1.3272   -1.1057   -1.9377 H   0  0  0  0  0  0  0  0  0  0  0  0
    2.6302   -0.9730    0.4802 C   0  0  0  0  0  0  0  0  0  0  0  0
    3.5573   -0.8304   -0.1111 H   0  0  0  0  0  0  0  0  0  0  0  0
    2.9348   -1.1269    1.5322 H   0  0  0  0  0  0  0  0  0  0  0  0
    2.0462   -0.0386    0.4216 H   0  0  0  0  0  0  0  0  0  0  0  0
  1  2  1  0  0  0  0
  1  7  1  0  0  0  0
  2  3  1  0  0  0  0
  2  4  1  0  0  0  0
  4  5  1  0  0  0  0
  4  6  1  0  0  0  0
  7  8  1  0  0  0  0
  4  7  1  0  0  0  0
  2  8  1  0  0  0  0
  8  9  1  0  0  0  0
  8 10  1  0  0  0  0
  7 11  1  0  0  0  0
  7 12  1  0  0  0  0
 13 14  1  0  0  0  0
 13 17  1  0  0  0  0
 14 15  1  0  0  0  0
 15 18  1  0  0  0  0
 15 16  1  0  0  0  0
 16 19  1  0  0  0  0
 16 17  1  0  0  0  0
 20 23  2  0  0  0  0
 23 24  1  0  0  0  0
 21 24  2  0  0  0  0
 21 25  1  0  0  0  0
 22 25  2  0  0  0  0
 20 22  1  0  0  0  0
 24 26  1  0  0  0  0
 25 27  1  0  0  0  0
 17 20  1  0  0  0  0
 28 31  2  0  0  0  0
 31 32  1  0  0  0  0
 29 32  2  0  0  0  0
 29 33  1  0  0  0  0
 30 33  2  0  0  0  0
 28 30  1  0  0  0  0
 32 34  1  0  0  0  0
 33 35  1  0  0  0  0
 14 28  1  0  0  0  0
 36 37  1  0  0  0  0
 36 38  1  0  0  0  0
 36 39  1  0  0  0  0
 30 36  1  0  0  0  0
 40 41  1  0  0  0  0
 40 42  1  0  0  0  0
 40 43  1  0  0  0  0
 31 40  1  0  0  0  0
 44 45  1  0  0  0  0
 44 46  1  0  0  0  0
 44 47  1  0  0  0  0
 23 44  1  0  0  0  0
 48 49  1  0  0  0  0
 48 50  1  0  0  0  0
 48 51  1  0  0  0  0
 22 48  1  0  0  0  0
 52 53  1  0  0  0  0
 52 54  1  0  0  0  0
 52 55  1  0  0  0  0
 21 52  1  0  0  0  0
 56 57  1  0  0  0  0
 56 58  1  0  0  0  0
 56 59  1  0  0  0  0
 29 56  1  0  0  0  0
 16 60  1  0  0  0  0
 15 61  1  0  0  0  0
 62 63  1  0  0  0  0
 62 64  1  0  0  0  0
 62 65  1  0  0  0  0
 60 62  1  0  0  0  0
 66 67  1  0  0  0  0
 66 68  1  0  0  0  0
 66 69  1  0  0  0  0
 60 66  1  0  0  0  0
 70 71  1  0  0  0  0
 70 72  1  0  0  0  0
 70 73  1  0  0  0  0
 60 70  1  0  0  0  0
 74 75  1  0  0  0  0
 74 76  1  0  0  0  0
 74 77  1  0  0  0  0
 61 74  1  0  0  0  0
 78 79  1  0  0  0  0
 78 80  1  0  0  0  0
 78 81  1  0  0  0  0
 61 78  1  0  0  0  0
 82 83  1  0  0  0  0
 82 84  1  0  0  0  0
 82 85  1  0  0  0  0
 61 82  1  0  0  0  0
  7 13  1  0  0  0  0
M  END
>  <DFT-ENERGY>
-2370.95322097

$$$$
