LOVPETMODN3_A1
  CDK     02052411123D

 78 82  0  0  0  0  0  0  0  0999 V2000
   -1.4712    0.6903   -0.1007 Ru  0  0  0  0  0  0  0  0  0  0  0  0
   -3.2456    0.7998   -1.4899 O   0  0  0  0  0  0  0  0  0  0  0  0
   -2.6216    1.6964    0.9034 C   0  0  0  0  0  0  0  0  0  0  0  0
   -2.3712    1.9744    1.9261 H   0  0  0  0  0  0  0  0  0  0  0  0
   -3.5284    0.0406   -2.7157 C   0  0  0  0  0  0  0  0  0  0  0  0
   -3.8969    0.7596   -3.4777 H   0  0  0  0  0  0  0  0  0  0  0  0
   -2.1355   -0.4844   -3.0395 C   0  0  0  0  0  0  0  0  0  0  0  0
   -2.1031   -0.9801   -4.0135 H   0  0  0  0  0  0  0  0  0  0  0  0
   -1.7957   -1.2097   -2.2753 H   0  0  0  0  0  0  0  0  0  0  0  0
   -1.4024    0.3473   -3.0503 H   0  0  0  0  0  0  0  0  0  0  0  0
   -4.5327   -1.0497   -2.3859 C   0  0  0  0  0  0  0  0  0  0  0  0
   -5.5434   -0.6588   -2.2288 H   0  0  0  0  0  0  0  0  0  0  0  0
   -4.2412   -1.5599   -1.4471 H   0  0  0  0  0  0  0  0  0  0  0  0
   -4.5789   -1.8130   -3.1689 H   0  0  0  0  0  0  0  0  0  0  0  0
   -4.1868    1.6578   -0.9849 C   0  0  0  0  0  0  0  0  0  0  0  0
   -5.3322    2.0779   -1.6379 C   0  0  0  0  0  0  0  0  0  0  0  0
   -5.5714    1.7418   -2.6442 H   0  0  0  0  0  0  0  0  0  0  0  0
   -6.1805    2.9629   -0.9804 C   0  0  0  0  0  0  0  0  0  0  0  0
   -7.0836    3.3072   -1.4892 H   0  0  0  0  0  0  0  0  0  0  0  0
   -5.9019    3.4183    0.3049 C   0  0  0  0  0  0  0  0  0  0  0  0
   -6.5855    4.1066    0.7991 H   0  0  0  0  0  0  0  0  0  0  0  0
   -4.7566    2.9866    0.9465 C   0  0  0  0  0  0  0  0  0  0  0  0
   -4.5419    3.3286    1.9578 H   0  0  0  0  0  0  0  0  0  0  0  0
   -3.8731    2.1150    0.3071 C   0  0  0  0  0  0  0  0  0  0  0  0
   -2.1958   -1.4343    0.4527 Cl  0  0  0  0  0  0  0  0  0  0  0  0
   -0.5368    2.3561   -1.4713 Cl  0  0  0  0  0  0  0  0  0  0  0  0
    0.2273    0.6639    1.3294 P   0  0  0  0  0  0  0  0  0  0  0  0
    1.7849    0.0337    0.3916 C   0  0  0  0  0  0  0  0  0  0  0  0
    2.3918   -0.5795    1.1054 H   0  0  0  0  0  0  0  0  0  0  0  0
    1.2782   -0.8651   -0.7505 C   0  0  0  0  0  0  0  0  0  0  0  0
    0.5830   -1.6556   -0.3909 H   0  0  0  0  0  0  0  0  0  0  0  0
    0.7173   -0.2645   -1.5134 H   0  0  0  0  0  0  0  0  0  0  0  0
    0.4290    3.4941    1.3711 C   0  0  0  0  0  0  0  0  0  0  0  0
    1.1058    3.4614    0.4905 H   0  0  0  0  0  0  0  0  0  0  0  0
   -0.6019    3.5137    0.9471 H   0  0  0  0  0  0  0  0  0  0  0  0
    3.4360   -0.4512   -2.0087 C   0  0  0  0  0  0  0  0  0  0  0  0
    2.9389    0.1095   -2.8252 H   0  0  0  0  0  0  0  0  0  0  0  0
    4.3209   -0.9342   -2.4625 H   0  0  0  0  0  0  0  0  0  0  0  0
    0.0443   -0.6687    2.7124 C   0  0  0  0  0  0  0  0  0  0  0  0
   -0.2141   -1.6288    2.1838 H   0  0  0  0  0  0  0  0  0  0  0  0
    0.6375    2.2812    2.2881 C   0  0  0  0  0  0  0  0  0  0  0  0
   -0.1102    2.3375    3.1230 H   0  0  0  0  0  0  0  0  0  0  0  0
    2.6702    1.1442   -0.1826 C   0  0  0  0  0  0  0  0  0  0  0  0
    2.0969    1.7774   -0.8974 H   0  0  0  0  0  0  0  0  0  0  0  0
    3.0371    1.8276    0.6169 H   0  0  0  0  0  0  0  0  0  0  0  0
    2.0657    4.8298    2.7800 C   0  0  0  0  0  0  0  0  0  0  0  0
    2.8404    4.8547    1.9895 H   0  0  0  0  0  0  0  0  0  0  0  0
    2.1966    5.7585    3.3658 H   0  0  0  0  0  0  0  0  0  0  0  0
    3.8777    0.5274   -0.9108 C   0  0  0  0  0  0  0  0  0  0  0  0
    4.4935    1.3326   -1.3540 H   0  0  0  0  0  0  0  0  0  0  0  0
    4.5291    0.0058   -0.1846 H   0  0  0  0  0  0  0  0  0  0  0  0
    2.4778   -1.5191   -1.4608 C   0  0  0  0  0  0  0  0  0  0  0  0
    3.0141   -2.1860   -0.7599 H   0  0  0  0  0  0  0  0  0  0  0  0
    2.1201   -2.1644   -2.2847 H   0  0  0  0  0  0  0  0  0  0  0  0
    0.6722    4.8044    2.1389 C   0  0  0  0  0  0  0  0  0  0  0  0
   -0.1027    4.9353    2.9174 H   0  0  0  0  0  0  0  0  0  0  0  0
    0.5583    5.6617    1.4478 H   0  0  0  0  0  0  0  0  0  0  0  0
    2.0398    2.2973    2.9080 C   0  0  0  0  0  0  0  0  0  0  0  0
    2.1810    1.4398    3.6053 H   0  0  0  0  0  0  0  0  0  0  0  0
    2.8235    2.1996    2.1196 H   0  0  0  0  0  0  0  0  0  0  0  0
   -1.1345   -0.3018    3.6228 C   0  0  0  0  0  0  0  0  0  0  0  0
   -0.9716    0.6691    4.1305 H   0  0  0  0  0  0  0  0  0  0  0  0
   -2.0707   -0.2103    3.0232 H   0  0  0  0  0  0  0  0  0  0  0  0
    1.3281   -0.9026    3.5151 C   0  0  0  0  0  0  0  0  0  0  0  0
    1.6616    0.0324    4.0239 H   0  0  0  0  0  0  0  0  0  0  0  0
    2.1622   -1.2106    2.8498 H   0  0  0  0  0  0  0  0  0  0  0  0
    2.2781    3.6056    3.6801 C   0  0  0  0  0  0  0  0  0  0  0  0
    3.3037    3.6134    4.0938 H   0  0  0  0  0  0  0  0  0  0  0  0
    1.5963    3.6586    4.5504 H   0  0  0  0  0  0  0  0  0  0  0  0
   -0.0675   -1.6392    5.5008 C   0  0  0  0  0  0  0  0  0  0  0  0
    0.1799   -0.7422    6.0995 H   0  0  0  0  0  0  0  0  0  0  0  0
   -0.2349   -2.4563    6.2272 H   0  0  0  0  0  0  0  0  0  0  0  0
    1.1073   -1.9918    4.5783 C   0  0  0  0  0  0  0  0  0  0  0  0
    0.9132   -2.9635    4.0836 H   0  0  0  0  0  0  0  0  0  0  0  0
    2.0291   -2.1284    5.1730 H   0  0  0  0  0  0  0  0  0  0  0  0
   -1.3463   -1.3897    4.6906 C   0  0  0  0  0  0  0  0  0  0  0  0
   -2.1729   -1.0974    5.3640 H   0  0  0  0  0  0  0  0  0  0  0  0
   -1.6706   -2.3292    4.1998 H   0  0  0  0  0  0  0  0  0  0  0  0
  1  2  1  0  0  0  0
  1  3  2  0  0  0  0
  3  4  1  0  0  0  0
  2  5  1  0  0  0  0
  5  6  1  0  0  0  0
  5  7  1  0  0  0  0
  7  8  1  0  0  0  0
  7  9  1  0  0  0  0
  7 10  1  0  0  0  0
  5 11  1  0  0  0  0
 11 12  1  0  0  0  0
 11 13  1  0  0  0  0
 11 14  1  0  0  0  0
  2 15  1  0  0  0  0
 15 24  1  0  0  0  0
 15 16  2  0  0  0  0
 16 17  1  0  0  0  0
 16 18  1  0  0  0  0
 18 19  1  0  0  0  0
 18 20  2  0  0  0  0
 20 21  1  0  0  0  0
 20 22  1  0  0  0  0
 22 24  2  0  0  0  0
 22 23  1  0  0  0  0
  3 24  1  0  0  0  0
  1 25  1  0  0  0  0
  1 26  1  0  0  0  0
 27 28  1  0  0  0  0
 28 29  1  0  0  0  0
 28 30  1  0  0  0  0
 30 31  1  0  0  0  0
 30 32  1  0  0  0  0
 33 34  1  0  0  0  0
 33 35  1  0  0  0  0
 36 37  1  0  0  0  0
 36 38  1  0  0  0  0
 27 39  1  0  0  0  0
 39 40  1  0  0  0  0
 27 41  1  0  0  0  0
 41 42  1  0  0  0  0
 28 43  1  0  0  0  0
 43 44  1  0  0  0  0
 43 45  1  0  0  0  0
 46 47  1  0  0  0  0
 46 48  1  0  0  0  0
 36 49  1  0  0  0  0
 49 50  1  0  0  0  0
 49 51  1  0  0  0  0
 30 52  1  0  0  0  0
 52 53  1  0  0  0  0
 52 54  1  0  0  0  0
 33 55  1  0  0  0  0
 55 56  1  0  0  0  0
 55 57  1  0  0  0  0
 41 58  1  0  0  0  0
 58 59  1  0  0  0  0
 58 60  1  0  0  0  0
 39 61  1  0  0  0  0
 61 62  1  0  0  0  0
 61 63  1  0  0  0  0
 39 64  1  0  0  0  0
 64 65  1  0  0  0  0
 64 66  1  0  0  0  0
 46 67  1  0  0  0  0
 67 68  1  0  0  0  0
 67 69  1  0  0  0  0
 70 71  1  0  0  0  0
 70 72  1  0  0  0  0
 64 73  1  0  0  0  0
 73 74  1  0  0  0  0
 73 75  1  0  0  0  0
 61 76  1  0  0  0  0
 76 77  1  0  0  0  0
 76 78  1  0  0  0  0
 33 41  1  0  0  0  0
 36 52  1  0  0  0  0
 43 49  1  0  0  0  0
 46 55  1  0  0  0  0
 58 67  1  0  0  0  0
 70 73  1  0  0  0  0
 70 76  1  0  0  0  0
  1 27  1  0  0  0  0
M  END
> <FrozenCore-PM6_ENERGY>
103.880

> <RMSD_CONF_CG-CS>
0.609130

> <RMSD_CONF_GO-CS>
0.000000

> <UID>


> <freeEnergyA>
-2523.95666036

> <freeEnergyF>
-2523.93503244

> <freeEnergyE>
-2523.95666036

> <freeEnergyC>
-2178.68226511

> <freeEnergyL>
-1046.11300459

> <freeEnergyX>
-2257.21505561

> <freeEnergyZ>
-2178.67498783

> <freeEnergyD>
-2178.70414503

> <G_Propene>
-117.738020895

> <G_Ethene>
-78.4716324751

> <G_HoveydaProd>
-502.204109499

> <G_SIMes>
-924.27249048

> <G_HG_RuCl2_SIMes>
-2402.13728523

> <DG_referenceProductionBarrier>
0.01468968

> <hartree_to_kcalmol>
627.49467516

> <DFT_IDENTIFIER>
1707175695680

> <DFT_MACHINE>
158.36.42.38

> <XTB_IDENTIFIER>
NREC

> <XTB_MACHINE>
NREC

> <DE_Synth>
13.2645973883137368

> <DESCRIPTOR_DEFINITION_1>
desc1=( echo "1 * ( e( $hartree_to_kcalmol * ( ( $freeEnergyZ - $freeEnergyD ) - ( $freeEnergyX + 2*$G_Ethene - $freeEnergyD - 2*$G_Propene ) - $DDG_reference_HGII ) / $kT ) ) " | bc -l )

> <DESCRIPTOR_DEFINITION_2>
desc2=$( echo "1 * ( $hartree_to_kcalmol * ( ( $freeEnergyZ - $freeEnergyD ) - ( $freeEnergyX + 2*$G_Ethene - $freeEnergyD - 2*$G_Propene ) ) )" | bc -l )

> <DESCRIPTOR_DEFINITION_3>
desc3=$( echo "1 * $hartree_to_kcalmol * ( $DG_referenceProductionBarrier - ( $freeEnergyX + 2*$G_Ethene - $freeEnergyD - 2*$G_Propene ) )" | bc -l )

> <WEIGHT_DEFINITION_1>
w1=$( echo "1 / ( 1 + e( $hartree_to_kcalmol * ( ( ( $freeEnergyX + 2*$G_Ethene - $freeEnergyD - 2*$G_Propene ) ) - ( $DG_referenceProductionBarrier + $magnitude4 ) ) / $kT ) )" | bc -l )

> <WEIGHT_DEFINITION_2>
w2=$( echo "1 / ( 1 + e( $hartree_to_kcalmol * ( ABS( $freeEnergyC + $G_HoveydaProd - $freeEnergyA - 2*${G_Ethene} - $DG_referencePrecursorStabilityHII ) - ( $DDG_referencePrecursorStability + $magnitude1 ) ) / $kT ) )" | bc -l )

> <WEIGHT_DEFINITION_3>
w3=$( echo "1 / ( 1 + e( $hartree_to_kcalmol * ( ( $freeEnergyE + $G_SIMes - $G_HG_RuCl2_SIMes - $freeEnergyL ) - ( $DG_referenceSynt  + $magnitude1 ) ) / $kT ) )" | bc -l )

> <WEIGHT_DEFINITION_4>
w4=$( echo "1 / ( 1 + e( $hartree_to_kcalmol * ( - ( $freeEnergyF - $freeEnergyA ) + $magnitude2 ) / $kT ) )" | bc -l )

> <FITNESS_DEFINITION>
fitness=$( echo "( $desc1 + $desc2 + $desc3 ) * $w1 * $w2 * $w3 * $w4" | bc -l )

> <DESCRIPTOR_1>
.00000028669426707010

> <DESCRIPTOR_2>
4.575026152409985432

> <DESCRIPTOR_3>
.254238880061201400

> <WEIGHT_1>
.99993353767229019103

> <WEIGHT_2>
.62588914837790774097

> <WEIGHT_3>
.97775285841328120687

> <WEIGHT_4>
.99999996620696050516

> <FITNESS>
2.95514436813866614656

$$$$
