
  CDK     08122423053D

 56 60  0  0  0  0  0  0  0  0999 V2000
   -0.2504    3.9983   -1.7015 C   0  0  0  0  0  0  0  0  0  0  0  0
    0.8189    3.9290   -1.9682 H   0  0  0  0  0  0  0  0  0  0  0  0
   -0.6371    5.0030   -1.9848 H   0  0  0  0  0  0  0  0  0  0  0  0
   -0.7976    3.2492   -2.3037 H   0  0  0  0  0  0  0  0  0  0  0  0
   -0.4665    3.8046   -0.2186 C   0  0  0  0  0  0  0  0  0  0  0  0
   -1.5114    3.8779    0.1403 H   0  0  0  0  0  0  0  0  0  0  0  0
    0.5119    4.1833    0.7376 C   0  0  0  0  0  0  0  0  0  0  0  0
    1.5189    4.3892    0.3326 H   0  0  0  0  0  0  0  0  0  0  0  0
    0.1225    4.8598    2.0297 C   0  0  0  0  0  0  0  0  0  0  0  0
    0.9543    4.9005    2.7577 H   0  0  0  0  0  0  0  0  0  0  0  0
   -0.1729    5.9061    1.7991 H   0  0  0  0  0  0  0  0  0  0  0  0
   -0.7452    4.3476    2.4911 H   0  0  0  0  0  0  0  0  0  0  0  0
    1.3775    2.2894    1.7623 C   0  0  0  0  0  0  0  0  0  0  0  0
    1.0756    2.5094    2.8082 H   0  0  0  0  0  0  0  0  0  0  0  0
    2.4615    2.3443    1.5175 H   0  0  0  0  0  0  0  0  0  0  0  0
    0.1364    1.8059    0.5003 Ru  0  0  0  0  0  0  0  0  0  0  0  0
   -1.6592    1.8950    2.1157 Cl  0  0  0  0  0  0  0  0  0  0  0  0
    1.9105    1.6568   -1.1155 Cl  0  0  0  0  0  0  0  0  0  0  0  0
    0.1094   -0.1756    0.4125 C   0  0  0  0  0  0  0  0  0  0  0  0
   -0.4284   -0.9330   -0.5902 N   0  0  0  0  0  0  0  0  0  0  0  0
   -0.1273   -2.2702   -0.5080 N   0  0  0  0  0  0  0  0  0  0  0  0
    0.6083   -2.3718    0.5859 C   0  0  0  0  0  0  0  0  0  0  0  0
    0.7600   -1.1131    1.1849 N   0  0  0  0  0  0  0  0  0  0  0  0
   -1.2187   -0.4123   -1.6435 C   0  0  0  0  0  0  0  0  0  0  0  0
   -2.7309    0.6984   -3.7130 C   0  0  0  0  0  0  0  0  0  0  0  0
   -1.2673   -1.0661   -2.8840 C   0  0  0  0  0  0  0  0  0  0  0  0
   -1.9330    0.7762   -1.4167 C   0  0  0  0  0  0  0  0  0  0  0  0
   -2.6822    1.3325   -2.4628 C   0  0  0  0  0  0  0  0  0  0  0  0
   -2.0291   -0.5024   -3.9144 C   0  0  0  0  0  0  0  0  0  0  0  0
   -3.2484    2.2578   -2.2852 H   0  0  0  0  0  0  0  0  0  0  0  0
   -2.0673   -1.0041   -4.8918 H   0  0  0  0  0  0  0  0  0  0  0  0
   -1.9817    1.2140   -0.3982 H   0  0  0  0  0  0  0  0  0  0  0  0
   -0.7033   -1.9968   -3.0224 H   0  0  0  0  0  0  0  0  0  0  0  0
   -3.3241    1.1336   -4.5296 H   0  0  0  0  0  0  0  0  0  0  0  0
    1.5442   -0.7921    2.3408 C   0  0  0  0  0  0  0  0  0  0  0  0
    3.0632   -0.2017    4.6019 C   0  0  0  0  0  0  0  0  0  0  0  0
    0.9039   -0.2780    3.4795 C   0  0  0  0  0  0  0  0  0  0  0  0
    2.9315   -0.9947    2.3068 C   0  0  0  0  0  0  0  0  0  0  0  0
    3.6892   -0.7021    3.4488 C   0  0  0  0  0  0  0  0  0  0  0  0
    1.6761    0.0166    4.6123 C   0  0  0  0  0  0  0  0  0  0  0  0
   -0.1772   -0.0797    3.4496 H   0  0  0  0  0  0  0  0  0  0  0  0
    3.4024   -1.3715    1.3894 H   0  0  0  0  0  0  0  0  0  0  0  0
    4.7769   -0.8584    3.4330 H   0  0  0  0  0  0  0  0  0  0  0  0
    1.1860    0.4250    5.5075 H   0  0  0  0  0  0  0  0  0  0  0  0
    3.6621    0.0278    5.4949 H   0  0  0  0  0  0  0  0  0  0  0  0
    1.1513   -3.6437    1.0748 C   0  0  0  0  0  0  0  0  0  0  0  0
    2.1388   -6.1462    1.9130 C   0  0  0  0  0  0  0  0  0  0  0  0
    1.4410   -4.6521    0.1282 C   0  0  0  0  0  0  0  0  0  0  0  0
    1.3498   -3.9069    2.4478 C   0  0  0  0  0  0  0  0  0  0  0  0
    1.8420   -5.1524    2.8579 C   0  0  0  0  0  0  0  0  0  0  0  0
    1.9314   -5.8930    0.5472 C   0  0  0  0  0  0  0  0  0  0  0  0
    1.2768   -4.4404   -0.9367 H   0  0  0  0  0  0  0  0  0  0  0  0
    1.1049   -3.1452    3.1987 H   0  0  0  0  0  0  0  0  0  0  0  0
    1.9894   -5.3481    3.9295 H   0  0  0  0  0  0  0  0  0  0  0  0
    2.1587   -6.6678   -0.1989 H   0  0  0  0  0  0  0  0  0  0  0  0
    2.5291   -7.1203    2.2409 H   0  0  0  0  0  0  0  0  0  0  0  0
  1  2  1  0  0  0  0
  1  5  1  0  0  0  0
  1  3  1  0  0  0  0
  1  4  1  0  0  0  0
  5  6  1  0  0  0  0
  5 16  1  0  0  0  0
  5  7  1  0  0  0  0
  7  9  1  0  0  0  0
  7  8  1  0  0  0  0
  9 10  1  0  0  0  0
  9 11  1  0  0  0  0
  9 12  1  0  0  0  0
 13 14  1  0  0  0  0
 13 15  1  0  0  0  0
  7 13  1  0  0  0  0
 13 16  1  0  0  0  0
 16 17  1  0  0  0  0
 16 18  1  0  0  0  0
 19 20  1  0  0  0  0
 19 23  1  0  0  0  0
 20 21  1  0  0  0  0
 22 23  1  0  0  0  0
 24 27  2  0  0  0  0
 27 28  1  0  0  0  0
 25 28  2  0  0  0  0
 25 29  1  0  0  0  0
 26 29  2  0  0  0  0
 24 26  1  0  0  0  0
 28 30  1  0  0  0  0
 29 31  1  0  0  0  0
 20 24  1  0  0  0  0
 21 22  2  0  0  0  0
 27 32  1  0  0  0  0
 26 33  1  0  0  0  0
 25 34  1  0  0  0  0
 35 38  2  0  0  0  0
 38 39  1  0  0  0  0
 36 39  2  0  0  0  0
 36 40  1  0  0  0  0
 37 40  2  0  0  0  0
 35 37  1  0  0  0  0
 39 43  1  0  0  0  0
 40 44  1  0  0  0  0
 36 45  1  0  0  0  0
 37 41  1  0  0  0  0
 38 42  1  0  0  0  0
 23 35  1  0  0  0  0
 46 49  2  0  0  0  0
 49 50  1  0  0  0  0
 47 50  2  0  0  0  0
 47 51  1  0  0  0  0
 48 51  2  0  0  0  0
 46 48  1  0  0  0  0
 50 54  1  0  0  0  0
 51 55  1  0  0  0  0
 47 56  1  0  0  0  0
 48 52  1  0  0  0  0
 49 53  1  0  0  0  0
 22 46  1  0  0  0  0
 16 19  1  0  0  0  0
M  END
>  <DFT-ENERGY>
-2145.45244207

$$$$
