
  CDK     08132402343D

 50 54  0  0  0  0  0  0  0  0999 V2000
   -1.8494   -1.0199   -0.6786 Ru  0  0  0  0  0  0  0  0  0  0  0  0
   -3.5149   -1.0713   -1.7107 C   0  0  0  0  0  0  0  0  0  0  0  0
   -3.4238   -1.4587   -2.7415 H   0  0  0  0  0  0  0  0  0  0  0  0
   -3.7498   -2.2124   -0.6439 C   0  0  0  0  0  0  0  0  0  0  0  0
   -3.8568   -3.1592   -1.2036 H   0  0  0  0  0  0  0  0  0  0  0  0
   -2.6083   -2.4424    0.4283 C   0  0  0  0  0  0  0  0  0  0  0  0
   -2.9039   -2.1449    1.4501 H   0  0  0  0  0  0  0  0  0  0  0  0
   -2.1158   -3.4260    0.3282 H   0  0  0  0  0  0  0  0  0  0  0  0
   -4.6448   -1.9108   -0.0702 H   0  0  0  0  0  0  0  0  0  0  0  0
   -4.1795   -0.2001   -1.5728 H   0  0  0  0  0  0  0  0  0  0  0  0
   -0.8543   -2.6373   -2.1374 Cl  0  0  0  0  0  0  0  0  0  0  0  0
   -2.8360    0.5909    0.7883 Cl  0  0  0  0  0  0  0  0  0  0  0  0
   -0.2200    0.1109   -0.5802 C   0  0  0  0  0  0  0  0  0  0  0  0
    0.1641    1.2292   -1.2517 N   0  0  0  0  0  0  0  0  0  0  0  0
    1.2628    1.8452   -0.6965 N   0  0  0  0  0  0  0  0  0  0  0  0
    1.5874    1.0846    0.3372 C   0  0  0  0  0  0  0  0  0  0  0  0
    0.7068    0.0014    0.4236 N   0  0  0  0  0  0  0  0  0  0  0  0
   -0.4907    1.7819   -2.3881 C   0  0  0  0  0  0  0  0  0  0  0  0
   -1.8486    2.8550   -4.5752 C   0  0  0  0  0  0  0  0  0  0  0  0
   -0.4879    3.1715   -2.5808 C   0  0  0  0  0  0  0  0  0  0  0  0
   -1.1384    0.9167   -3.2844 C   0  0  0  0  0  0  0  0  0  0  0  0
   -1.8295    1.4666   -4.3726 C   0  0  0  0  0  0  0  0  0  0  0  0
   -1.1686    3.7013   -3.6840 C   0  0  0  0  0  0  0  0  0  0  0  0
   -2.3403    0.7954   -5.0774 H   0  0  0  0  0  0  0  0  0  0  0  0
   -1.1768    4.7892   -3.8413 H   0  0  0  0  0  0  0  0  0  0  0  0
   -1.0681   -0.1749   -3.1491 H   0  0  0  0  0  0  0  0  0  0  0  0
    0.0392    3.8134   -1.8641 H   0  0  0  0  0  0  0  0  0  0  0  0
   -2.3875    3.2795   -5.4340 H   0  0  0  0  0  0  0  0  0  0  0  0
    0.5757   -1.0066    1.4404 C   0  0  0  0  0  0  0  0  0  0  0  0
    0.2260   -2.9779    3.3726 C   0  0  0  0  0  0  0  0  0  0  0  0
    0.7580   -2.3511    1.0828 C   0  0  0  0  0  0  0  0  0  0  0  0
    0.2025   -0.6300    2.7385 C   0  0  0  0  0  0  0  0  0  0  0  0
    0.0366   -1.6267    3.7081 C   0  0  0  0  0  0  0  0  0  0  0  0
    0.5786   -3.3383    2.0631 C   0  0  0  0  0  0  0  0  0  0  0  0
    0.9996   -2.6118    0.0429 H   0  0  0  0  0  0  0  0  0  0  0  0
    0.0240    0.4284    2.9669 H   0  0  0  0  0  0  0  0  0  0  0  0
   -0.2598   -1.3464    4.7284 H   0  0  0  0  0  0  0  0  0  0  0  0
    0.7103   -4.3957    1.7942 H   0  0  0  0  0  0  0  0  0  0  0  0
    0.0868   -3.7559    4.1370 H   0  0  0  0  0  0  0  0  0  0  0  0
    2.7172    1.3593    1.2282 C   0  0  0  0  0  0  0  0  0  0  0  0
    4.9120    1.9790    2.8811 C   0  0  0  0  0  0  0  0  0  0  0  0
    3.1709    2.6927    1.3435 C   0  0  0  0  0  0  0  0  0  0  0  0
    3.3814    0.3374    1.9412 C   0  0  0  0  0  0  0  0  0  0  0  0
    4.4712    0.6525    2.7627 C   0  0  0  0  0  0  0  0  0  0  0  0
    4.2608    2.9968    2.1646 C   0  0  0  0  0  0  0  0  0  0  0  0
    2.6511    3.4792    0.7805 H   0  0  0  0  0  0  0  0  0  0  0  0
    3.0585   -0.7067    1.8431 H   0  0  0  0  0  0  0  0  0  0  0  0
    4.9837   -0.1505    3.3112 H   0  0  0  0  0  0  0  0  0  0  0  0
    4.6029    4.0380    2.2505 H   0  0  0  0  0  0  0  0  0  0  0  0
    5.7659    2.2206    3.5302 H   0  0  0  0  0  0  0  0  0  0  0  0
  2  4  1  0  0  0  0
  2  1  1  0  0  0  0
  2  3  1  0  0  0  0
  4  6  1  0  0  0  0
  4  5  1  0  0  0  0
  6  1  1  0  0  0  0
  6  8  1  0  0  0  0
  7  6  1  0  0  0  0
  9  4  1  0  0  0  0
 10  2  1  0  0  0  0
  1 11  1  0  0  0  0
  1 12  1  0  0  0  0
 13 14  1  0  0  0  0
 13 17  1  0  0  0  0
 14 15  1  0  0  0  0
 16 17  1  0  0  0  0
 18 21  2  0  0  0  0
 21 22  1  0  0  0  0
 19 22  2  0  0  0  0
 19 23  1  0  0  0  0
 20 23  2  0  0  0  0
 18 20  1  0  0  0  0
 22 24  1  0  0  0  0
 23 25  1  0  0  0  0
 14 18  1  0  0  0  0
 16 15  2  0  0  0  0
 21 26  1  0  0  0  0
 20 27  1  0  0  0  0
 19 28  1  0  0  0  0
 29 32  2  0  0  0  0
 32 33  1  0  0  0  0
 30 33  2  0  0  0  0
 30 34  1  0  0  0  0
 31 34  2  0  0  0  0
 29 31  1  0  0  0  0
 33 37  1  0  0  0  0
 34 38  1  0  0  0  0
 30 39  1  0  0  0  0
 31 35  1  0  0  0  0
 32 36  1  0  0  0  0
 17 29  1  0  0  0  0
 40 43  2  0  0  0  0
 43 44  1  0  0  0  0
 41 44  2  0  0  0  0
 41 45  1  0  0  0  0
 42 45  2  0  0  0  0
 40 42  1  0  0  0  0
 44 48  1  0  0  0  0
 45 49  1  0  0  0  0
 41 50  1  0  0  0  0
 42 46  1  0  0  0  0
 43 47  1  0  0  0  0
 16 40  1  0  0  0  0
  1 13  1  0  0  0  0
M  END
>  <DFT-ENERGY>
-2066.94244227

$$$$
