
  CDK     08132401223D

 50 55  0  0  0  0  0  0  0  0999 V2000
    1.4302   -1.3002   -2.8394 H   0  0  0  0  0  0  0  0  0  0  0  0
    2.6528   -1.4365   -2.8103 C   0  0  0  0  0  0  0  0  0  0  0  0
    2.6618   -1.4423   -3.9223 H   0  0  0  0  0  0  0  0  0  0  0  0
    2.7861   -2.6664   -1.9741 C   0  0  0  0  0  0  0  0  0  0  0  0
    3.7028   -2.7789   -1.3721 H   0  0  0  0  0  0  0  0  0  0  0  0
    2.3934   -3.5999   -2.4129 H   0  0  0  0  0  0  0  0  0  0  0  0
    1.4101   -1.4145   -1.0694 Ru  0  0  0  0  0  0  0  0  0  0  0  0
    2.9463   -0.2402   -2.0086 C   0  0  0  0  0  0  0  0  0  0  0  0
    3.8408   -0.2338   -1.3736 H   0  0  0  0  0  0  0  0  0  0  0  0
    2.6242    0.7383   -2.4042 H   0  0  0  0  0  0  0  0  0  0  0  0
    2.9505   -1.0718    0.7964 Cl  0  0  0  0  0  0  0  0  0  0  0  0
   -0.4649   -2.4782   -2.1335 Cl  0  0  0  0  0  0  0  0  0  0  0  0
    0.4097   -1.8469    0.6634 C   0  0  0  0  0  0  0  0  0  0  0  0
    0.2162   -2.8663    1.5375 N   0  0  0  0  0  0  0  0  0  0  0  0
   -0.4961   -2.4898    2.6565 N   0  0  0  0  0  0  0  0  0  0  0  0
   -0.7754   -1.2074    2.4684 C   0  0  0  0  0  0  0  0  0  0  0  0
   -0.2592   -0.7985    1.2421 N   0  0  0  0  0  0  0  0  0  0  0  0
    0.7654   -4.1809    1.4622 C   0  0  0  0  0  0  0  0  0  0  0  0
    1.8944   -6.7293    1.3374 C   0  0  0  0  0  0  0  0  0  0  0  0
    1.1131   -4.8379    2.6530 C   0  0  0  0  0  0  0  0  0  0  0  0
    0.9566   -4.7831    0.2097 C   0  0  0  0  0  0  0  0  0  0  0  0
    1.5319   -6.0600    0.1587 C   0  0  0  0  0  0  0  0  0  0  0  0
    1.6761   -6.1178    2.5824 C   0  0  0  0  0  0  0  0  0  0  0  0
    1.6839   -6.5396   -0.8188 H   0  0  0  0  0  0  0  0  0  0  0  0
    1.9548   -6.6371    3.5103 H   0  0  0  0  0  0  0  0  0  0  0  0
    0.6344   -4.2607   -0.7003 H   0  0  0  0  0  0  0  0  0  0  0  0
    0.9421   -4.3363    3.6134 H   0  0  0  0  0  0  0  0  0  0  0  0
    2.3420   -7.7322    1.2877 H   0  0  0  0  0  0  0  0  0  0  0  0
   -0.0984    0.4946    0.6357 C   0  0  0  0  0  0  0  0  0  0  0  0
    0.4212    2.9013   -0.6694 C   0  0  0  0  0  0  0  0  0  0  0  0
   -0.5365    0.6618   -0.6916 C   0  0  0  0  0  0  0  0  0  0  0  0
    0.5971    1.5052    1.3177 C   0  0  0  0  0  0  0  0  0  0  0  0
    0.8439    2.7144    0.6599 C   0  0  0  0  0  0  0  0  0  0  0  0
   -0.2644    1.8810   -1.3400 C   0  0  0  0  0  0  0  0  0  0  0  0
   -1.1117   -0.1336   -1.1863 H   0  0  0  0  0  0  0  0  0  0  0  0
    0.9625    1.3222    2.3359 H   0  0  0  0  0  0  0  0  0  0  0  0
    1.3945    3.5105    1.1802 H   0  0  0  0  0  0  0  0  0  0  0  0
   -0.6026    2.0241   -2.3760 H   0  0  0  0  0  0  0  0  0  0  0  0
    0.6314    3.8513   -1.1813 H   0  0  0  0  0  0  0  0  0  0  0  0
   -1.5410   -0.3877    3.4095 C   0  0  0  0  0  0  0  0  0  0  0  0
   -3.0219    1.1173    5.2725 C   0  0  0  0  0  0  0  0  0  0  0  0
   -1.5834   -0.7753    4.7673 C   0  0  0  0  0  0  0  0  0  0  0  0
   -2.2579    0.7545    2.9916 C   0  0  0  0  0  0  0  0  0  0  0  0
   -2.9911    1.5006    3.9232 C   0  0  0  0  0  0  0  0  0  0  0  0
   -2.3198   -0.0256    5.6897 C   0  0  0  0  0  0  0  0  0  0  0  0
   -1.0279   -1.6695    5.0800 H   0  0  0  0  0  0  0  0  0  0  0  0
   -2.2562    1.0526    1.9351 H   0  0  0  0  0  0  0  0  0  0  0  0
   -3.5486    2.3867    3.5880 H   0  0  0  0  0  0  0  0  0  0  0  0
   -2.3431   -0.3328    6.7450 H   0  0  0  0  0  0  0  0  0  0  0  0
   -3.5967    1.7079    6.0002 H   0  0  0  0  0  0  0  0  0  0  0  0
  1  2  1  0  0  0  0
  1  7  1  0  0  0  0
  2  3  1  0  0  0  0
  2  4  1  0  0  0  0
  4  5  1  0  0  0  0
  4  6  1  0  0  0  0
  7  8  1  0  0  0  0
  4  7  1  0  0  0  0
  2  8  1  0  0  0  0
  8  9  1  0  0  0  0
  8 10  1  0  0  0  0
  7 11  1  0  0  0  0
  7 12  1  0  0  0  0
 13 14  1  0  0  0  0
 13 17  1  0  0  0  0
 14 15  1  0  0  0  0
 16 17  1  0  0  0  0
 18 21  2  0  0  0  0
 21 22  1  0  0  0  0
 19 22  2  0  0  0  0
 19 23  1  0  0  0  0
 20 23  2  0  0  0  0
 18 20  1  0  0  0  0
 22 24  1  0  0  0  0
 23 25  1  0  0  0  0
 14 18  1  0  0  0  0
 15 16  2  0  0  0  0
 21 26  1  0  0  0  0
 20 27  1  0  0  0  0
 19 28  1  0  0  0  0
 29 32  2  0  0  0  0
 32 33  1  0  0  0  0
 30 33  2  0  0  0  0
 30 34  1  0  0  0  0
 31 34  2  0  0  0  0
 29 31  1  0  0  0  0
 33 37  1  0  0  0  0
 34 38  1  0  0  0  0
 30 39  1  0  0  0  0
 31 35  1  0  0  0  0
 32 36  1  0  0  0  0
 17 29  1  0  0  0  0
 40 43  2  0  0  0  0
 43 44  1  0  0  0  0
 41 44  2  0  0  0  0
 41 45  1  0  0  0  0
 42 45  2  0  0  0  0
 40 42  1  0  0  0  0
 44 48  1  0  0  0  0
 45 49  1  0  0  0  0
 41 50  1  0  0  0  0
 42 46  1  0  0  0  0
 43 47  1  0  0  0  0
 16 40  1  0  0  0  0
  7 13  1  0  0  0  0
M  END
>  <DFT-ENERGY>
-2066.90692724

$$$$
