
  CDK     02022422353D

 67 70  0  0  0  0  0  0  0  0999 V2000
   -0.0689    3.1270    1.5897 C   0  0  0  0  0  0  0  0  0  0  0  0
    0.9675    3.1057    1.9698 H   0  0  0  0  0  0  0  0  0  0  0  0
   -0.5847    4.0410    1.9609 H   0  0  0  0  0  0  0  0  0  0  0  0
   -0.6148    2.2619    2.0204 H   0  0  0  0  0  0  0  0  0  0  0  0
   -0.1263    3.1218    0.0803 C   0  0  0  0  0  0  0  0  0  0  0  0
   -1.1382    3.2208   -0.3549 H   0  0  0  0  0  0  0  0  0  0  0  0
    0.9331    3.5432   -0.7682 C   0  0  0  0  0  0  0  0  0  0  0  0
    1.9177    3.7006   -0.2943 H   0  0  0  0  0  0  0  0  0  0  0  0
    0.6265    4.3103   -2.0345 C   0  0  0  0  0  0  0  0  0  0  0  0
    1.4858    4.3514   -2.7302 H   0  0  0  0  0  0  0  0  0  0  0  0
    0.3692    5.3557   -1.7584 H   0  0  0  0  0  0  0  0  0  0  0  0
   -0.2455    3.8693   -2.5564 H   0  0  0  0  0  0  0  0  0  0  0  0
    1.6810    1.6970   -1.9590 C   0  0  0  0  0  0  0  0  0  0  0  0
    1.2755    1.8721   -2.9782 H   0  0  0  0  0  0  0  0  0  0  0  0
    2.7775    1.8060   -1.8111 H   0  0  0  0  0  0  0  0  0  0  0  0
    0.5974    1.1810   -0.5782 Ru  0  0  0  0  0  0  0  0  0  0  0  0
   -1.2915    1.2715   -2.0735 Cl  0  0  0  0  0  0  0  0  0  0  0  0
    2.5133    1.2376    0.8788 Cl  0  0  0  0  0  0  0  0  0  0  0  0
   -0.3408   -1.4482    0.4435 N   0  0  0  0  0  0  0  0  0  0  0  0
    0.8387   -1.7376   -1.3945 N   0  0  0  0  0  0  0  0  0  0  0  0
    0.3951   -0.8134   -0.5049 C   0  0  0  0  0  0  0  0  0  0  0  0
   -0.5410   -2.8765    0.1369 C   0  0  0  0  0  0  0  0  0  0  0  0
   -1.5827   -3.0530   -0.2074 H   0  0  0  0  0  0  0  0  0  0  0  0
   -0.3594   -3.4984    1.0347 H   0  0  0  0  0  0  0  0  0  0  0  0
    0.4895   -3.1126   -0.9808 C   0  0  0  0  0  0  0  0  0  0  0  0
    1.3973   -3.6421   -0.6178 H   0  0  0  0  0  0  0  0  0  0  0  0
    0.0765   -3.6820   -1.8354 H   0  0  0  0  0  0  0  0  0  0  0  0
   -0.9405   -0.7710    1.5581 C   0  0  0  0  0  0  0  0  0  0  0  0
   -0.1866   -0.6501    2.7511 C   0  0  0  0  0  0  0  0  0  0  0  0
   -0.7604    0.0508    3.8251 C   0  0  0  0  0  0  0  0  0  0  0  0
   -0.1784    0.1632    4.7530 H   0  0  0  0  0  0  0  0  0  0  0  0
   -2.0502    0.6062    3.7456 C   0  0  0  0  0  0  0  0  0  0  0  0
   -2.7924    0.4073    2.5681 C   0  0  0  0  0  0  0  0  0  0  0  0
   -3.8191    0.7999    2.5028 H   0  0  0  0  0  0  0  0  0  0  0  0
   -2.2696   -0.2917    1.4649 C   0  0  0  0  0  0  0  0  0  0  0  0
    1.1873   -1.2497    2.8651 C   0  0  0  0  0  0  0  0  0  0  0  0
    1.2170   -2.2879    2.4771 H   0  0  0  0  0  0  0  0  0  0  0  0
    1.5236   -1.2624    3.9188 H   0  0  0  0  0  0  0  0  0  0  0  0
    1.9130   -0.6516    2.2727 H   0  0  0  0  0  0  0  0  0  0  0  0
   -2.6152    1.4082    4.8903 C   0  0  0  0  0  0  0  0  0  0  0  0
   -2.2593    1.0299    5.8686 H   0  0  0  0  0  0  0  0  0  0  0  0
   -3.7224    1.3952    4.8923 H   0  0  0  0  0  0  0  0  0  0  0  0
   -2.2984    2.4709    4.8175 H   0  0  0  0  0  0  0  0  0  0  0  0
   -3.1141   -0.5486    0.2468 C   0  0  0  0  0  0  0  0  0  0  0  0
   -4.0768   -0.0086    0.3179 H   0  0  0  0  0  0  0  0  0  0  0  0
   -3.3473   -1.6301    0.1454 H   0  0  0  0  0  0  0  0  0  0  0  0
   -2.6024   -0.2174   -0.6802 H   0  0  0  0  0  0  0  0  0  0  0  0
    1.7151   -1.4837   -2.5010 C   0  0  0  0  0  0  0  0  0  0  0  0
    3.1072   -1.3963   -2.2759 C   0  0  0  0  0  0  0  0  0  0  0  0
    3.9362   -1.1311   -3.3818 C   0  0  0  0  0  0  0  0  0  0  0  0
    5.0226   -1.0539   -3.2196 H   0  0  0  0  0  0  0  0  0  0  0  0
    3.4190   -0.9714   -4.6781 C   0  0  0  0  0  0  0  0  0  0  0  0
    2.0311   -1.1088   -4.8662 C   0  0  0  0  0  0  0  0  0  0  0  0
    1.6090   -1.0107   -5.8787 H   0  0  0  0  0  0  0  0  0  0  0  0
    1.1592   -1.3717   -3.7969 C   0  0  0  0  0  0  0  0  0  0  0  0
    3.6888   -1.5600   -0.8989 C   0  0  0  0  0  0  0  0  0  0  0  0
    3.2923   -2.4597   -0.3855 H   0  0  0  0  0  0  0  0  0  0  0  0
    3.4390   -0.6876   -0.2553 H   0  0  0  0  0  0  0  0  0  0  0  0
    4.7901   -1.6523   -0.9460 H   0  0  0  0  0  0  0  0  0  0  0  0
    4.3228   -0.6566   -5.8440 C   0  0  0  0  0  0  0  0  0  0  0  0
    5.3883   -0.8139   -5.5889 H   0  0  0  0  0  0  0  0  0  0  0  0
    4.2077    0.4016   -6.1614 H   0  0  0  0  0  0  0  0  0  0  0  0
    4.0817   -1.2841   -6.7257 H   0  0  0  0  0  0  0  0  0  0  0  0
   -0.3218   -1.5128   -4.0179 C   0  0  0  0  0  0  0  0  0  0  0  0
   -0.6984   -2.4962   -3.6658 H   0  0  0  0  0  0  0  0  0  0  0  0
   -0.5700   -1.4228   -5.0922 H   0  0  0  0  0  0  0  0  0  0  0  0
   -0.8732   -0.7279   -3.4577 H   0  0  0  0  0  0  0  0  0  0  0  0
  1  2  1  0  0  0  0
  1  5  1  0  0  0  0
  1  3  1  0  0  0  0
  1  4  1  0  0  0  0
  5  6  1  0  0  0  0
  5 16  1  0  0  0  0
  5  7  1  0  0  0  0
  7  9  1  0  0  0  0
  7  8  1  0  0  0  0
  9 10  1  0  0  0  0
  9 11  1  0  0  0  0
  9 12  1  0  0  0  0
 13 14  1  0  0  0  0
 13 15  1  0  0  0  0
  7 13  1  0  0  0  0
 13 16  1  0  0  0  0
 16 17  1  0  0  0  0
 16 18  1  0  0  0  0
 19 21  1  0  0  0  0
 19 22  1  0  0  0  0
 19 28  1  0  0  0  0
 20 21  1  0  0  0  0
 20 25  1  0  0  0  0
 20 48  1  0  0  0  0
 22 23  1  0  0  0  0
 22 24  1  0  0  0  0
 22 25  1  0  0  0  0
 25 26  1  0  0  0  0
 25 27  1  0  0  0  0
 28 29  1  0  0  0  0
 28 35  2  0  0  0  0
 29 30  2  0  0  0  0
 29 36  1  0  0  0  0
 30 31  1  0  0  0  0
 30 32  1  0  0  0  0
 32 33  2  0  0  0  0
 32 40  1  0  0  0  0
 33 34  1  0  0  0  0
 33 35  1  0  0  0  0
 35 44  1  0  0  0  0
 36 37  1  0  0  0  0
 36 38  1  0  0  0  0
 36 39  1  0  0  0  0
 40 41  1  0  0  0  0
 40 42  1  0  0  0  0
 40 43  1  0  0  0  0
 44 45  1  0  0  0  0
 44 46  1  0  0  0  0
 44 47  1  0  0  0  0
 48 49  1  0  0  0  0
 48 55  2  0  0  0  0
 49 50  2  0  0  0  0
 49 56  1  0  0  0  0
 50 51  1  0  0  0  0
 50 52  1  0  0  0  0
 52 53  2  0  0  0  0
 52 60  1  0  0  0  0
 53 54  1  0  0  0  0
 53 55  1  0  0  0  0
 55 64  1  0  0  0  0
 56 57  1  0  0  0  0
 56 58  1  0  0  0  0
 56 59  1  0  0  0  0
 60 61  1  0  0  0  0
 60 62  1  0  0  0  0
 60 63  1  0  0  0  0
 64 65  1  0  0  0  0
 64 66  1  0  0  0  0
 64 67  1  0  0  0  0
 16 21  1  0  0  0  0
M  END
>  <DFT-ENERGY>
-2135.41526017

$$$$
