
  CDK     08192412573D

 61 65  0  0  0  0  0  0  0  0999 V2000
    0.3704   -0.2861   -3.3654 H   0  0  0  0  0  0  0  0  0  0  0  0
    1.5928   -0.1464   -3.3638 C   0  0  0  0  0  0  0  0  0  0  0  0
    1.4413    0.1569   -4.4254 H   0  0  0  0  0  0  0  0  0  0  0  0
    1.7795    0.8352   -2.2626 C   0  0  0  0  0  0  0  0  0  0  0  0
    2.7517    0.8237   -1.7425 H   0  0  0  0  0  0  0  0  0  0  0  0
    1.3451    1.8378   -2.4140 H   0  0  0  0  0  0  0  0  0  0  0  0
    0.4602   -0.6513   -1.6319 Ru  0  0  0  0  0  0  0  0  0  0  0  0
    1.9798   -1.4997   -2.9927 C   0  0  0  0  0  0  0  0  0  0  0  0
    2.9219   -1.6670   -2.4575 H   0  0  0  0  0  0  0  0  0  0  0  0
    1.6418   -2.3253   -3.6411 H   0  0  0  0  0  0  0  0  0  0  0  0
    2.3260   -1.5711    0.1632 I   0  0  0  0  0  0  0  0  0  0  0  0
   -1.7763    0.4092   -2.8388 I   0  0  0  0  0  0  0  0  0  0  0  0
   -0.9600    0.8861    0.6367 N   0  0  0  0  0  0  0  0  0  0  0  0
   -0.9742   -1.2770    1.0452 N   0  0  0  0  0  0  0  0  0  0  0  0
   -0.5121   -0.3183    0.1781 C   0  0  0  0  0  0  0  0  0  0  0  0
   -1.6405    0.7649    1.9440 C   0  0  0  0  0  0  0  0  0  0  0  0
   -2.5311    1.4163    1.9867 H   0  0  0  0  0  0  0  0  0  0  0  0
   -0.9389    1.0669    2.7532 H   0  0  0  0  0  0  0  0  0  0  0  0
   -1.9761   -0.7187    1.9792 C   0  0  0  0  0  0  0  0  0  0  0  0
   -1.8904   -1.1639    2.9843 H   0  0  0  0  0  0  0  0  0  0  0  0
   -2.9943   -0.9293    1.5838 H   0  0  0  0  0  0  0  0  0  0  0  0
   -0.6793    2.1950    0.1188 C   0  0  0  0  0  0  0  0  0  0  0  0
   -1.7445    2.9614   -0.4096 C   0  0  0  0  0  0  0  0  0  0  0  0
   -1.4545    4.2379   -0.9213 C   0  0  0  0  0  0  0  0  0  0  0  0
   -2.2750    4.8275   -1.3592 H   0  0  0  0  0  0  0  0  0  0  0  0
   -0.1583    4.7761   -0.8926 C   0  0  0  0  0  0  0  0  0  0  0  0
    0.8550    4.0232   -0.2739 C   0  0  0  0  0  0  0  0  0  0  0  0
    1.8658    4.4503   -0.1796 H   0  0  0  0  0  0  0  0  0  0  0  0
    0.6178    2.7444    0.2585 C   0  0  0  0  0  0  0  0  0  0  0  0
   -3.1746    2.4844   -0.3821 C   0  0  0  0  0  0  0  0  0  0  0  0
   -3.2462    1.3821   -0.3753 H   0  0  0  0  0  0  0  0  0  0  0  0
   -3.7268    2.8486   -1.2692 H   0  0  0  0  0  0  0  0  0  0  0  0
   -3.6991    2.8811    0.5157 H   0  0  0  0  0  0  0  0  0  0  0  0
    0.1393    6.1220   -1.5034 C   0  0  0  0  0  0  0  0  0  0  0  0
    0.9557    6.6429   -0.9654 H   0  0  0  0  0  0  0  0  0  0  0  0
   -0.7527    6.7784   -1.5020 H   0  0  0  0  0  0  0  0  0  0  0  0
    0.4635    6.0121   -2.5606 H   0  0  0  0  0  0  0  0  0  0  0  0
    1.7042    2.0215    1.0026 C   0  0  0  0  0  0  0  0  0  0  0  0
    2.5698    2.6879    1.1765 H   0  0  0  0  0  0  0  0  0  0  0  0
    2.0570    1.1189    0.4653 H   0  0  0  0  0  0  0  0  0  0  0  0
    1.3485    1.6585    1.9889 H   0  0  0  0  0  0  0  0  0  0  0  0
   -0.6819   -2.6771    1.0723 C   0  0  0  0  0  0  0  0  0  0  0  0
   -0.9234   -3.4916   -0.0572 C   0  0  0  0  0  0  0  0  0  0  0  0
   -0.6662   -4.8679    0.0368 C   0  0  0  0  0  0  0  0  0  0  0  0
   -0.8494   -5.4974   -0.8481 H   0  0  0  0  0  0  0  0  0  0  0  0
   -0.1823   -5.4575    1.2169 C   0  0  0  0  0  0  0  0  0  0  0  0
    0.0815   -4.6162    2.3093 C   0  0  0  0  0  0  0  0  0  0  0  0
    0.5122   -5.0455    3.2275 H   0  0  0  0  0  0  0  0  0  0  0  0
   -0.1421   -3.2301    2.2595 C   0  0  0  0  0  0  0  0  0  0  0  0
   -1.3559   -2.8907   -1.3560 C   0  0  0  0  0  0  0  0  0  0  0  0
   -2.1296   -2.1097   -1.2578 H   0  0  0  0  0  0  0  0  0  0  0  0
   -1.7093   -3.6573   -2.0714 H   0  0  0  0  0  0  0  0  0  0  0  0
   -0.4645   -2.4301   -1.9015 H   0  0  0  0  0  0  0  0  0  0  0  0
    0.0469   -6.9451    1.3020 C   0  0  0  0  0  0  0  0  0  0  0  0
    0.4685   -7.3453    0.3586 H   0  0  0  0  0  0  0  0  0  0  0  0
   -0.9059   -7.4861    1.4871 H   0  0  0  0  0  0  0  0  0  0  0  0
    0.7392   -7.2036    2.1264 H   0  0  0  0  0  0  0  0  0  0  0  0
    0.2842   -2.3658    3.4184 C   0  0  0  0  0  0  0  0  0  0  0  0
   -0.5405   -2.1684    4.1378 H   0  0  0  0  0  0  0  0  0  0  0  0
    0.6729   -1.3926    3.0582 H   0  0  0  0  0  0  0  0  0  0  0  0
    1.0918   -2.8639    3.9877 H   0  0  0  0  0  0  0  0  0  0  0  0
  1  2  1  0  0  0  0
  1  7  1  0  0  0  0
  2  3  1  0  0  0  0
  2  4  1  0  0  0  0
  4  5  1  0  0  0  0
  6  4  1  0  0  0  0
  7  8  1  0  0  0  0
  7  4  1  0  0  0  0
  8  2  1  0  0  0  0
  8  9  1  0  0  0  0
 10  8  1  0  0  0  0
  7 11  1  0  0  0  0
  7 12  1  0  0  0  0
 13 15  1  0  0  0  0
 14 15  1  0  0  0  0
 16 13  1  0  0  0  0
 16 19  1  0  0  0  0
 17 16  1  0  0  0  0
 18 16  1  0  0  0  0
 19 14  1  0  0  0  0
 20 19  1  0  0  0  0
 21 19  1  0  0  0  0
 23 22  2  0  0  0  0
 24 23  1  0  0  0  0
 25 24  1  0  0  0  0
 26 24  2  0  0  0  0
 27 26  1  0  0  0  0
 27 29  2  0  0  0  0
 28 27  1  0  0  0  0
 29 22  1  0  0  0  0
 13 22  1  0  0  0  0
 31 30  1  0  0  0  0
 32 30  1  0  0  0  0
 33 30  1  0  0  0  0
 23 30  1  0  0  0  0
 35 34  1  0  0  0  0
 36 34  1  0  0  0  0
 37 34  1  0  0  0  0
 26 34  1  0  0  0  0
 39 38  1  0  0  0  0
 40 38  1  0  0  0  0
 41 38  1  0  0  0  0
 29 38  1  0  0  0  0
 43 42  2  0  0  0  0
 44 43  1  0  0  0  0
 45 44  1  0  0  0  0
 46 44  2  0  0  0  0
 47 46  1  0  0  0  0
 47 49  2  0  0  0  0
 48 47  1  0  0  0  0
 49 42  1  0  0  0  0
 14 42  1  0  0  0  0
 51 50  1  0  0  0  0
 52 50  1  0  0  0  0
 53 50  1  0  0  0  0
 43 50  1  0  0  0  0
 55 54  1  0  0  0  0
 56 54  1  0  0  0  0
 57 54  1  0  0  0  0
 46 54  1  0  0  0  0
 59 58  1  0  0  0  0
 60 58  1  0  0  0  0
 61 58  1  0  0  0  0
 49 58  1  0  0  0  0
  7 15  1  0  0  0  0
M  END
>  <DFT-ENERGY>
-1728.23266031

$$$$
