
  CDK     08132419173D

 71 74  0  0  0  0  0  0  0  0999 V2000
   -0.2589    3.1779   -1.5629 C   0  0  0  0  0  0  0  0  0  0  0  0
    0.7559    3.1537   -1.9977 H   0  0  0  0  0  0  0  0  0  0  0  0
   -0.8291    4.0339   -1.9885 H   0  0  0  0  0  0  0  0  0  0  0  0
   -0.7952    2.2588   -1.8830 H   0  0  0  0  0  0  0  0  0  0  0  0
   -0.2376    3.3093   -0.0577 C   0  0  0  0  0  0  0  0  0  0  0  0
   -1.2272    3.4317    0.4204 H   0  0  0  0  0  0  0  0  0  0  0  0
    0.8624    3.8006    0.6965 C   0  0  0  0  0  0  0  0  0  0  0  0
    1.8179    3.9389    0.1613 H   0  0  0  0  0  0  0  0  0  0  0  0
    0.6090    4.6520    1.9208 C   0  0  0  0  0  0  0  0  0  0  0  0
    1.4987    4.7435    2.5722 H   0  0  0  0  0  0  0  0  0  0  0  0
    0.3328    5.6755    1.5869 H   0  0  0  0  0  0  0  0  0  0  0  0
   -0.2353    4.2459    2.5120 H   0  0  0  0  0  0  0  0  0  0  0  0
    1.6654    2.0509    1.9925 C   0  0  0  0  0  0  0  0  0  0  0  0
    1.2696    2.2804    3.0050 H   0  0  0  0  0  0  0  0  0  0  0  0
    2.7587    2.1684    1.8254 H   0  0  0  0  0  0  0  0  0  0  0  0
    0.5769    1.4402    0.6580 Ru  0  0  0  0  0  0  0  0  0  0  0  0
   -1.2867    1.5385    2.1851 Cl  0  0  0  0  0  0  0  0  0  0  0  0
    2.4656    1.4538   -0.8364 Cl  0  0  0  0  0  0  0  0  0  0  0  0
   -0.2222   -1.3333   -0.2820 N   0  0  0  0  0  0  0  0  0  0  0  0
    1.0632   -1.4987    1.4533 N   0  0  0  0  0  0  0  0  0  0  0  0
    0.4805   -0.5813    0.6202 C   0  0  0  0  0  0  0  0  0  0  0  0
   -0.0890   -2.7102   -0.0233 C   0  0  0  0  0  0  0  0  0  0  0  0
    0.7311   -2.8150    1.0746 C   0  0  0  0  0  0  0  0  0  0  0  0
   -0.9667   -0.7565   -1.3704 C   0  0  0  0  0  0  0  0  0  0  0  0
   -2.3212   -0.4110   -1.1624 C   0  0  0  0  0  0  0  0  0  0  0  0
   -3.0063    0.1964   -2.2304 C   0  0  0  0  0  0  0  0  0  0  0  0
   -4.0596    0.4820   -2.0854 H   0  0  0  0  0  0  0  0  0  0  0  0
   -2.3899    0.4323   -3.4721 C   0  0  0  0  0  0  0  0  0  0  0  0
   -1.0597    0.0114   -3.6528 C   0  0  0  0  0  0  0  0  0  0  0  0
   -0.5734    0.1560   -4.6299 H   0  0  0  0  0  0  0  0  0  0  0  0
   -0.3240   -0.5937   -2.6190 C   0  0  0  0  0  0  0  0  0  0  0  0
   -3.0083   -0.6928    0.1445 C   0  0  0  0  0  0  0  0  0  0  0  0
   -2.6223   -0.0239    0.9451 H   0  0  0  0  0  0  0  0  0  0  0  0
   -2.8282   -1.7333    0.4836 H   0  0  0  0  0  0  0  0  0  0  0  0
   -4.0998   -0.5390    0.0541 H   0  0  0  0  0  0  0  0  0  0  0  0
   -3.1324    1.1319   -4.5824 C   0  0  0  0  0  0  0  0  0  0  0  0
   -2.8168    0.7657   -5.5789 H   0  0  0  0  0  0  0  0  0  0  0  0
   -2.9332    2.2249   -4.5588 H   0  0  0  0  0  0  0  0  0  0  0  0
   -4.2276    0.9964   -4.4910 H   0  0  0  0  0  0  0  0  0  0  0  0
    1.0961   -1.0379   -2.8313 C   0  0  0  0  0  0  0  0  0  0  0  0
    1.2735   -2.0591   -2.4379 H   0  0  0  0  0  0  0  0  0  0  0  0
    1.7918   -0.3572   -2.2930 H   0  0  0  0  0  0  0  0  0  0  0  0
    1.3543   -1.0263   -3.9067 H   0  0  0  0  0  0  0  0  0  0  0  0
    1.9160   -1.1724    2.5646 C   0  0  0  0  0  0  0  0  0  0  0  0
    3.3021   -1.0413    2.3375 C   0  0  0  0  0  0  0  0  0  0  0  0
    4.1106   -0.7003    3.4371 C   0  0  0  0  0  0  0  0  0  0  0  0
    5.1947   -0.5888    3.2799 H   0  0  0  0  0  0  0  0  0  0  0  0
    3.5747   -0.5061    4.7219 C   0  0  0  0  0  0  0  0  0  0  0  0
    2.1916   -0.6873    4.9072 C   0  0  0  0  0  0  0  0  0  0  0  0
    1.7585   -0.5646    5.9122 H   0  0  0  0  0  0  0  0  0  0  0  0
    1.3374   -1.0272    3.8444 C   0  0  0  0  0  0  0  0  0  0  0  0
    3.8887   -1.2441    0.9682 C   0  0  0  0  0  0  0  0  0  0  0  0
    4.9936   -1.2662    1.0122 H   0  0  0  0  0  0  0  0  0  0  0  0
    3.5787   -0.4234    0.2835 H   0  0  0  0  0  0  0  0  0  0  0  0
    3.5388   -2.1907    0.5075 H   0  0  0  0  0  0  0  0  0  0  0  0
    4.4567   -0.1034    5.8774 C   0  0  0  0  0  0  0  0  0  0  0  0
    4.3756    0.9867    6.0760 H   0  0  0  0  0  0  0  0  0  0  0  0
    5.5224   -0.3239    5.6742 H   0  0  0  0  0  0  0  0  0  0  0  0
    4.1663   -0.6237    6.8118 H   0  0  0  0  0  0  0  0  0  0  0  0
   -0.1394   -1.2131    4.0543 C   0  0  0  0  0  0  0  0  0  0  0  0
   -0.4980   -2.1744    3.6323 H   0  0  0  0  0  0  0  0  0  0  0  0
   -0.7055   -0.4048    3.5410 H   0  0  0  0  0  0  0  0  0  0  0  0
   -0.3905   -1.1913    5.1312 H   0  0  0  0  0  0  0  0  0  0  0  0
   -0.7699   -3.7368   -0.8587 C   0  0  0  0  0  0  0  0  0  0  0  0
   -0.5384   -4.7513   -0.4848 H   0  0  0  0  0  0  0  0  0  0  0  0
   -1.8721   -3.6078   -0.8457 H   0  0  0  0  0  0  0  0  0  0  0  0
   -0.4522   -3.6793   -1.9204 H   0  0  0  0  0  0  0  0  0  0  0  0
    1.2501   -3.9986    1.8133 C   0  0  0  0  0  0  0  0  0  0  0  0
    0.8760   -4.9321    1.3535 H   0  0  0  0  0  0  0  0  0  0  0  0
    0.9377   -3.9874    2.8779 H   0  0  0  0  0  0  0  0  0  0  0  0
    2.3593   -4.0290    1.8049 H   0  0  0  0  0  0  0  0  0  0  0  0
  1  2  1  0  0  0  0
  1  5  1  0  0  0  0
  1  3  1  0  0  0  0
  1  4  1  0  0  0  0
  5  6  1  0  0  0  0
  5 16  1  0  0  0  0
  5  7  1  0  0  0  0
  7  9  1  0  0  0  0
  7  8  1  0  0  0  0
  9 10  1  0  0  0  0
  9 11  1  0  0  0  0
  9 12  1  0  0  0  0
 13 14  1  0  0  0  0
 13 15  1  0  0  0  0
  7 13  1  0  0  0  0
 13 16  1  0  0  0  0
 16 17  1  0  0  0  0
 16 18  1  0  0  0  0
 19 21  1  0  0  0  0
 19 22  1  0  0  0  0
 20 21  1  0  0  0  0
 20 23  1  0  0  0  0
 22 23  2  0  0  0  0
 24 25  2  0  0  0  0
 24 31  1  0  0  0  0
 25 26  1  0  0  0  0
 26 27  1  0  0  0  0
 26 28  2  0  0  0  0
 28 29  1  0  0  0  0
 29 30  1  0  0  0  0
 29 31  2  0  0  0  0
 19 24  1  0  0  0  0
 32 33  1  0  0  0  0
 32 34  1  0  0  0  0
 32 35  1  0  0  0  0
 25 32  1  0  0  0  0
 36 37  1  0  0  0  0
 36 38  1  0  0  0  0
 36 39  1  0  0  0  0
 28 36  1  0  0  0  0
 40 41  1  0  0  0  0
 40 42  1  0  0  0  0
 40 43  1  0  0  0  0
 31 40  1  0  0  0  0
 44 45  2  0  0  0  0
 44 51  1  0  0  0  0
 45 46  1  0  0  0  0
 46 47  1  0  0  0  0
 46 48  2  0  0  0  0
 48 49  1  0  0  0  0
 49 50  1  0  0  0  0
 49 51  2  0  0  0  0
 20 44  1  0  0  0  0
 52 53  1  0  0  0  0
 52 54  1  0  0  0  0
 52 55  1  0  0  0  0
 45 52  1  0  0  0  0
 56 57  1  0  0  0  0
 56 58  1  0  0  0  0
 56 59  1  0  0  0  0
 48 56  1  0  0  0  0
 60 61  1  0  0  0  0
 60 62  1  0  0  0  0
 60 63  1  0  0  0  0
 51 60  1  0  0  0  0
 64 65  1  0  0  0  0
 64 66  1  0  0  0  0
 64 67  1  0  0  0  0
 22 64  1  0  0  0  0
 68 69  1  0  0  0  0
 68 70  1  0  0  0  0
 68 71  1  0  0  0  0
 23 68  1  0  0  0  0
 16 21  1  0  0  0  0
M  END
>  <DFT-ENERGY>
-2212.76499933

$$$$
