
  CDK     08142403533D

 65 68  0  0  0  0  0  0  0  0999 V2000
    0.1536    0.8918    1.5283 Ru  0  0  0  0  0  0  0  0  0  0  0  0
    1.3744    0.8776    3.0567 C   0  0  0  0  0  0  0  0  0  0  0  0
    2.3909    1.2590    2.8521 H   0  0  0  0  0  0  0  0  0  0  0  0
    0.3505    2.0161    3.4584 C   0  0  0  0  0  0  0  0  0  0  0  0
    0.9402    2.9466    3.5477 H   0  0  0  0  0  0  0  0  0  0  0  0
   -0.8180    2.3266    2.4364 C   0  0  0  0  0  0  0  0  0  0  0  0
   -1.8163    2.0506    2.8206 H   0  0  0  0  0  0  0  0  0  0  0  0
   -0.7330    3.3237    1.9684 H   0  0  0  0  0  0  0  0  0  0  0  0
   -0.1351    1.6815    4.3930 H   0  0  0  0  0  0  0  0  0  0  0  0
    1.3087   -0.0147    3.7047 H   0  0  0  0  0  0  0  0  0  0  0  0
    1.5419    2.5645    0.5273 Cl  0  0  0  0  0  0  0  0  0  0  0  0
   -1.2189   -0.6796    2.7009 Cl  0  0  0  0  0  0  0  0  0  0  0  0
   -0.9757    0.0461   -1.1618 N   0  0  0  0  0  0  0  0  0  0  0  0
    0.7900   -1.1103   -0.6626 N   0  0  0  0  0  0  0  0  0  0  0  0
   -0.0219   -0.1168   -0.2013 C   0  0  0  0  0  0  0  0  0  0  0  0
   -0.7686   -0.8451   -2.2339 C   0  0  0  0  0  0  0  0  0  0  0  0
    0.3508   -1.5784   -1.9172 C   0  0  0  0  0  0  0  0  0  0  0  0
   -2.0439    1.0085   -1.0686 C   0  0  0  0  0  0  0  0  0  0  0  0
   -3.2642    0.6104   -0.4794 C   0  0  0  0  0  0  0  0  0  0  0  0
   -4.2772    1.5792   -0.3733 C   0  0  0  0  0  0  0  0  0  0  0  0
   -5.2348    1.2911    0.0874 H   0  0  0  0  0  0  0  0  0  0  0  0
   -4.1030    2.8928   -0.8442 C   0  0  0  0  0  0  0  0  0  0  0  0
   -2.8882    3.2274   -1.4686 C   0  0  0  0  0  0  0  0  0  0  0  0
   -2.7484    4.2416   -1.8735 H   0  0  0  0  0  0  0  0  0  0  0  0
   -1.8402    2.3000   -1.6024 C   0  0  0  0  0  0  0  0  0  0  0  0
   -3.4709   -0.7924    0.0200 C   0  0  0  0  0  0  0  0  0  0  0  0
   -2.8697   -0.9675    0.9394 H   0  0  0  0  0  0  0  0  0  0  0  0
   -3.1470   -1.5478   -0.7247 H   0  0  0  0  0  0  0  0  0  0  0  0
   -4.5360   -0.9714    0.2579 H   0  0  0  0  0  0  0  0  0  0  0  0
   -5.1921    3.9222   -0.6755 C   0  0  0  0  0  0  0  0  0  0  0  0
   -5.1586    4.6874   -1.4754 H   0  0  0  0  0  0  0  0  0  0  0  0
   -5.0821    4.4558    0.2929 H   0  0  0  0  0  0  0  0  0  0  0  0
   -6.1974    3.4575   -0.6790 H   0  0  0  0  0  0  0  0  0  0  0  0
   -0.5523    2.6714   -2.2834 C   0  0  0  0  0  0  0  0  0  0  0  0
   -0.2379    1.9031   -3.0188 H   0  0  0  0  0  0  0  0  0  0  0  0
    0.2689    2.7589   -1.5383 H   0  0  0  0  0  0  0  0  0  0  0  0
   -0.6521    3.6385   -2.8106 H   0  0  0  0  0  0  0  0  0  0  0  0
    1.9384   -1.5976    0.0584 C   0  0  0  0  0  0  0  0  0  0  0  0
    3.1935   -0.9960   -0.1807 C   0  0  0  0  0  0  0  0  0  0  0  0
    4.2888   -1.4678    0.5637 C   0  0  0  0  0  0  0  0  0  0  0  0
    5.2755   -1.0088    0.3967 H   0  0  0  0  0  0  0  0  0  0  0  0
    4.1587   -2.5071    1.5020 C   0  0  0  0  0  0  0  0  0  0  0  0
    2.8987   -3.1093    1.6675 C   0  0  0  0  0  0  0  0  0  0  0  0
    2.7870   -3.9476    2.3725 H   0  0  0  0  0  0  0  0  0  0  0  0
    1.7685   -2.6790    0.9508 C   0  0  0  0  0  0  0  0  0  0  0  0
    3.3529    0.1096   -1.1869 C   0  0  0  0  0  0  0  0  0  0  0  0
    4.4227    0.3089   -1.3845 H   0  0  0  0  0  0  0  0  0  0  0  0
    2.8834    1.0450   -0.8105 H   0  0  0  0  0  0  0  0  0  0  0  0
    2.8588   -0.1334   -2.1495 H   0  0  0  0  0  0  0  0  0  0  0  0
    5.3426   -2.9605    2.3188 C   0  0  0  0  0  0  0  0  0  0  0  0
    6.2961   -2.8057    1.7771 H   0  0  0  0  0  0  0  0  0  0  0  0
    5.2654   -4.0315    2.5904 H   0  0  0  0  0  0  0  0  0  0  0  0
    5.4084   -2.3863    3.2678 H   0  0  0  0  0  0  0  0  0  0  0  0
    0.4314   -3.3421    1.1315 C   0  0  0  0  0  0  0  0  0  0  0  0
   -0.0481   -3.5758    0.1592 H   0  0  0  0  0  0  0  0  0  0  0  0
   -0.2637   -2.6692    1.6805 H   0  0  0  0  0  0  0  0  0  0  0  0
    0.5343   -4.2825    1.7044 H   0  0  0  0  0  0  0  0  0  0  0  0
   -1.6737   -0.8694   -3.4149 C   0  0  0  0  0  0  0  0  0  0  0  0
   -1.3386   -1.6346   -4.1392 H   0  0  0  0  0  0  0  0  0  0  0  0
   -2.7188   -1.1024   -3.1237 H   0  0  0  0  0  0  0  0  0  0  0  0
   -1.6952    0.1117   -3.9327 H   0  0  0  0  0  0  0  0  0  0  0  0
    1.0663   -2.6654   -2.6391 C   0  0  0  0  0  0  0  0  0  0  0  0
    0.5631   -2.8844   -3.5989 H   0  0  0  0  0  0  0  0  0  0  0  0
    1.0962   -3.6005   -2.0425 H   0  0  0  0  0  0  0  0  0  0  0  0
    2.1187   -2.3880   -2.8553 H   0  0  0  0  0  0  0  0  0  0  0  0
  2  4  1  0  0  0  0
  2  1  1  0  0  0  0
  2  3  1  0  0  0  0
  4  6  1  0  0  0  0
  4  5  1  0  0  0  0
  6  1  1  0  0  0  0
  6  8  1  0  0  0  0
  7  6  1  0  0  0  0
  9  4  1  0  0  0  0
 10  2  1  0  0  0  0
  1 11  1  0  0  0  0
  1 12  1  0  0  0  0
 13 15  1  0  0  0  0
 13 16  1  0  0  0  0
 14 15  1  0  0  0  0
 14 17  1  0  0  0  0
 16 17  2  0  0  0  0
 18 19  2  0  0  0  0
 18 25  1  0  0  0  0
 19 20  1  0  0  0  0
 20 21  1  0  0  0  0
 20 22  2  0  0  0  0
 22 23  1  0  0  0  0
 23 24  1  0  0  0  0
 23 25  2  0  0  0  0
 13 18  1  0  0  0  0
 26 27  1  0  0  0  0
 26 28  1  0  0  0  0
 26 29  1  0  0  0  0
 19 26  1  0  0  0  0
 30 31  1  0  0  0  0
 30 32  1  0  0  0  0
 30 33  1  0  0  0  0
 22 30  1  0  0  0  0
 34 35  1  0  0  0  0
 34 36  1  0  0  0  0
 34 37  1  0  0  0  0
 25 34  1  0  0  0  0
 38 39  2  0  0  0  0
 38 45  1  0  0  0  0
 39 40  1  0  0  0  0
 40 41  1  0  0  0  0
 40 42  2  0  0  0  0
 42 43  1  0  0  0  0
 43 44  1  0  0  0  0
 43 45  2  0  0  0  0
 14 38  1  0  0  0  0
 46 47  1  0  0  0  0
 46 48  1  0  0  0  0
 46 49  1  0  0  0  0
 39 46  1  0  0  0  0
 50 51  1  0  0  0  0
 50 52  1  0  0  0  0
 50 53  1  0  0  0  0
 42 50  1  0  0  0  0
 54 55  1  0  0  0  0
 54 56  1  0  0  0  0
 54 57  1  0  0  0  0
 45 54  1  0  0  0  0
 58 59  1  0  0  0  0
 58 60  1  0  0  0  0
 58 61  1  0  0  0  0
 16 58  1  0  0  0  0
 62 63  1  0  0  0  0
 62 64  1  0  0  0  0
 62 65  1  0  0  0  0
 17 62  1  0  0  0  0
  1 15  1  0  0  0  0
M  END
>  <DFT-ENERGY>
-2134.25437036

$$$$
