
  CDK     08142401233D

 65 69  0  0  0  0  0  0  0  0999 V2000
   -1.1773    3.2803   -0.6927 H   0  0  0  0  0  0  0  0  0  0  0  0
   -2.3924    3.1717   -0.5322 C   0  0  0  0  0  0  0  0  0  0  0  0
   -2.4441    4.2833   -0.5124 H   0  0  0  0  0  0  0  0  0  0  0  0
   -2.4278    2.3275    0.6989 C   0  0  0  0  0  0  0  0  0  0  0  0
   -3.3070    1.6787    0.8485 H   0  0  0  0  0  0  0  0  0  0  0  0
   -2.0140    2.7776    1.6181 H   0  0  0  0  0  0  0  0  0  0  0  0
   -1.0433    1.5145   -0.5915 Ru  0  0  0  0  0  0  0  0  0  0  0  0
   -2.6623    2.3831   -1.7388 C   0  0  0  0  0  0  0  0  0  0  0  0
   -3.5141    1.6929   -1.7558 H   0  0  0  0  0  0  0  0  0  0  0  0
   -2.3766    2.8263   -2.7082 H   0  0  0  0  0  0  0  0  0  0  0  0
   -2.5461   -0.3784   -0.8955 Cl  0  0  0  0  0  0  0  0  0  0  0  0
    0.8196    2.8720    0.0755 Cl  0  0  0  0  0  0  0  0  0  0  0  0
    0.5106   -0.4532    1.2360 N   0  0  0  0  0  0  0  0  0  0  0  0
    0.7010   -1.0290   -0.8424 N   0  0  0  0  0  0  0  0  0  0  0  0
    0.1100   -0.1031   -0.0256 C   0  0  0  0  0  0  0  0  0  0  0  0
    1.3347   -1.5925    1.2134 C   0  0  0  0  0  0  0  0  0  0  0  0
    1.4606   -1.9548   -0.1079 C   0  0  0  0  0  0  0  0  0  0  0  0
    0.1683    0.2623    2.4391 C   0  0  0  0  0  0  0  0  0  0  0  0
    1.1035    1.1577    2.9952 C   0  0  0  0  0  0  0  0  0  0  0  0
    0.7199    1.8685    4.1482 C   0  0  0  0  0  0  0  0  0  0  0  0
    1.4318    2.5866    4.5844 H   0  0  0  0  0  0  0  0  0  0  0  0
   -0.5355    1.6926    4.7489 C   0  0  0  0  0  0  0  0  0  0  0  0
   -1.4142    0.7433    4.1929 C   0  0  0  0  0  0  0  0  0  0  0  0
   -2.3890    0.5608    4.6717 H   0  0  0  0  0  0  0  0  0  0  0  0
   -1.0835    0.0061    3.0453 C   0  0  0  0  0  0  0  0  0  0  0  0
    2.4907    1.3387    2.4349 C   0  0  0  0  0  0  0  0  0  0  0  0
    2.7689    2.4094    2.4257 H   0  0  0  0  0  0  0  0  0  0  0  0
    2.5787    0.9648    1.4004 H   0  0  0  0  0  0  0  0  0  0  0  0
    3.2350    0.8074    3.0675 H   0  0  0  0  0  0  0  0  0  0  0  0
   -0.9428    2.4989    5.9566 C   0  0  0  0  0  0  0  0  0  0  0  0
   -1.4490    1.8682    6.7148 H   0  0  0  0  0  0  0  0  0  0  0  0
   -1.6584    3.3004    5.6744 H   0  0  0  0  0  0  0  0  0  0  0  0
   -0.0719    2.9854    6.4363 H   0  0  0  0  0  0  0  0  0  0  0  0
   -2.0136   -1.0404    2.4993 C   0  0  0  0  0  0  0  0  0  0  0  0
   -1.5050   -2.0243    2.4172 H   0  0  0  0  0  0  0  0  0  0  0  0
   -2.3611   -0.7882    1.4748 H   0  0  0  0  0  0  0  0  0  0  0  0
   -2.8945   -1.1638    3.1567 H   0  0  0  0  0  0  0  0  0  0  0  0
    0.5900   -1.0175   -2.2780 C   0  0  0  0  0  0  0  0  0  0  0  0
   -0.2764   -1.9269   -2.9191 C   0  0  0  0  0  0  0  0  0  0  0  0
   -0.3779   -1.8501   -4.3200 C   0  0  0  0  0  0  0  0  0  0  0  0
   -1.0614   -2.5430   -4.8354 H   0  0  0  0  0  0  0  0  0  0  0  0
    0.3566   -0.9213   -5.0734 C   0  0  0  0  0  0  0  0  0  0  0  0
    1.2524   -0.0729   -4.3971 C   0  0  0  0  0  0  0  0  0  0  0  0
    1.8717    0.6318   -4.9736 H   0  0  0  0  0  0  0  0  0  0  0  0
    1.3980   -0.1073   -3.0008 C   0  0  0  0  0  0  0  0  0  0  0  0
   -1.0487   -2.9850   -2.1749 C   0  0  0  0  0  0  0  0  0  0  0  0
   -1.0270   -2.8311   -1.0829 H   0  0  0  0  0  0  0  0  0  0  0  0
   -0.6419   -3.9928   -2.4082 H   0  0  0  0  0  0  0  0  0  0  0  0
   -2.1111   -2.9747   -2.4843 H   0  0  0  0  0  0  0  0  0  0  0  0
    0.1885   -0.8272   -6.5690 C   0  0  0  0  0  0  0  0  0  0  0  0
   -0.5268   -0.0195   -6.8343 H   0  0  0  0  0  0  0  0  0  0  0  0
   -0.2059   -1.7692   -6.9965 H   0  0  0  0  0  0  0  0  0  0  0  0
    1.1464   -0.5903   -7.0730 H   0  0  0  0  0  0  0  0  0  0  0  0
    2.4140    0.7630   -2.3098 C   0  0  0  0  0  0  0  0  0  0  0  0
    3.0296    0.1753   -1.5975 H   0  0  0  0  0  0  0  0  0  0  0  0
    1.9420    1.5725   -1.7140 H   0  0  0  0  0  0  0  0  0  0  0  0
    3.0917    1.2296   -3.0489 H   0  0  0  0  0  0  0  0  0  0  0  0
    1.8824   -2.1985    2.4578 C   0  0  0  0  0  0  0  0  0  0  0  0
    2.4240   -3.1331    2.2215 H   0  0  0  0  0  0  0  0  0  0  0  0
    2.5843   -1.5147    2.9772 H   0  0  0  0  0  0  0  0  0  0  0  0
    1.0737   -2.4401    3.1775 H   0  0  0  0  0  0  0  0  0  0  0  0
    2.2212   -3.0536   -0.7634 C   0  0  0  0  0  0  0  0  0  0  0  0
    2.8413   -3.5872   -0.0195 H   0  0  0  0  0  0  0  0  0  0  0  0
    2.8916   -2.6609   -1.5552 H   0  0  0  0  0  0  0  0  0  0  0  0
    1.5484   -3.7926   -1.2445 H   0  0  0  0  0  0  0  0  0  0  0  0
  1  2  1  0  0  0  0
  1  7  1  0  0  0  0
  2  3  1  0  0  0  0
  2  4  1  0  0  0  0
  4  5  1  0  0  0  0
  6  4  1  0  0  0  0
  7  8  1  0  0  0  0
  7  4  1  0  0  0  0
  8  2  1  0  0  0  0
  8  9  1  0  0  0  0
 10  8  1  0  0  0  0
  7 11  1  0  0  0  0
  7 12  1  0  0  0  0
 13 15  1  0  0  0  0
 13 16  1  0  0  0  0
 14 15  1  0  0  0  0
 14 17  1  0  0  0  0
 16 17  2  0  0  0  0
 18 19  2  0  0  0  0
 18 25  1  0  0  0  0
 19 20  1  0  0  0  0
 20 21  1  0  0  0  0
 20 22  2  0  0  0  0
 22 23  1  0  0  0  0
 23 24  1  0  0  0  0
 23 25  2  0  0  0  0
 13 18  1  0  0  0  0
 26 27  1  0  0  0  0
 26 28  1  0  0  0  0
 26 29  1  0  0  0  0
 19 26  1  0  0  0  0
 30 31  1  0  0  0  0
 30 32  1  0  0  0  0
 30 33  1  0  0  0  0
 22 30  1  0  0  0  0
 34 35  1  0  0  0  0
 34 36  1  0  0  0  0
 34 37  1  0  0  0  0
 25 34  1  0  0  0  0
 38 39  2  0  0  0  0
 38 45  1  0  0  0  0
 39 40  1  0  0  0  0
 40 41  1  0  0  0  0
 40 42  2  0  0  0  0
 42 43  1  0  0  0  0
 43 44  1  0  0  0  0
 43 45  2  0  0  0  0
 14 38  1  0  0  0  0
 46 47  1  0  0  0  0
 46 48  1  0  0  0  0
 46 49  1  0  0  0  0
 39 46  1  0  0  0  0
 50 51  1  0  0  0  0
 50 52  1  0  0  0  0
 50 53  1  0  0  0  0
 42 50  1  0  0  0  0
 54 55  1  0  0  0  0
 54 56  1  0  0  0  0
 54 57  1  0  0  0  0
 45 54  1  0  0  0  0
 58 59  1  0  0  0  0
 58 60  1  0  0  0  0
 58 61  1  0  0  0  0
 16 58  1  0  0  0  0
 62 63  1  0  0  0  0
 62 64  1  0  0  0  0
 62 65  1  0  0  0  0
 17 62  1  0  0  0  0
  7 15  1  0  0  0  0
M  END
>  <DFT-ENERGY>
-2134.20851896

$$$$
