
  CDK     08132407503D

 71 74  0  0  0  0  0  0  0  0999 V2000
   -0.1274   -3.2690   -1.5475 C   0  0  0  0  0  0  0  0  0  0  0  0
    0.8862   -3.2066   -1.9813 H   0  0  0  0  0  0  0  0  0  0  0  0
   -0.6584   -4.1557   -1.9606 H   0  0  0  0  0  0  0  0  0  0  0  0
   -0.7032   -2.3794   -1.8823 H   0  0  0  0  0  0  0  0  0  0  0  0
   -0.1028   -3.3770   -0.0404 C   0  0  0  0  0  0  0  0  0  0  0  0
   -1.0867   -3.5355    0.4386 H   0  0  0  0  0  0  0  0  0  0  0  0
    1.0163   -3.8092    0.7221 C   0  0  0  0  0  0  0  0  0  0  0  0
    1.9777   -3.9142    0.1900 H   0  0  0  0  0  0  0  0  0  0  0  0
    0.7977   -4.6526    1.9586 C   0  0  0  0  0  0  0  0  0  0  0  0
    1.6894   -4.6964    2.6121 H   0  0  0  0  0  0  0  0  0  0  0  0
    0.5659   -5.6918    1.6396 H   0  0  0  0  0  0  0  0  0  0  0  0
   -0.0640   -4.2743    2.5429 H   0  0  0  0  0  0  0  0  0  0  0  0
    1.7417   -2.0079    1.9929 C   0  0  0  0  0  0  0  0  0  0  0  0
    1.3545   -2.2384    3.0084 H   0  0  0  0  0  0  0  0  0  0  0  0
    2.8393   -2.0813    1.8283 H   0  0  0  0  0  0  0  0  0  0  0  0
    0.6298   -1.4644    0.6488 Ru  0  0  0  0  0  0  0  0  0  0  0  0
   -1.2294   -1.6202    2.1765 Cl  0  0  0  0  0  0  0  0  0  0  0  0
    2.5193   -1.4197   -0.8444 Cl  0  0  0  0  0  0  0  0  0  0  0  0
   -0.2814    1.2598   -0.3337 N   0  0  0  0  0  0  0  0  0  0  0  0
    0.9903    1.5034    1.4025 N   0  0  0  0  0  0  0  0  0  0  0  0
    0.4489    0.5507    0.5811 C   0  0  0  0  0  0  0  0  0  0  0  0
   -0.2066    2.6446   -0.0945 C   0  0  0  0  0  0  0  0  0  0  0  0
   -0.9279    3.6298   -0.9457 C   0  0  0  0  0  0  0  0  0  0  0  0
    0.6050    2.7992    1.0040 C   0  0  0  0  0  0  0  0  0  0  0  0
    1.0721    4.0138    1.7267 C   0  0  0  0  0  0  0  0  0  0  0  0
   -0.9985    0.6364   -1.4149 C   0  0  0  0  0  0  0  0  0  0  0  0
   -0.3474    0.4835   -2.6604 C   0  0  0  0  0  0  0  0  0  0  0  0
   -1.0546   -0.1672   -3.6861 C   0  0  0  0  0  0  0  0  0  0  0  0
   -0.5610   -0.3047   -4.6605 H   0  0  0  0  0  0  0  0  0  0  0  0
   -2.3660   -0.6422   -3.5008 C   0  0  0  0  0  0  0  0  0  0  0  0
   -2.9937   -0.4156   -2.2633 C   0  0  0  0  0  0  0  0  0  0  0  0
   -4.0340   -0.7442   -2.1152 H   0  0  0  0  0  0  0  0  0  0  0  0
   -2.3370    0.2357   -1.2032 C   0  0  0  0  0  0  0  0  0  0  0  0
    1.0529    0.9849   -2.8774 C   0  0  0  0  0  0  0  0  0  0  0  0
    1.1856    2.0185   -2.4992 H   0  0  0  0  0  0  0  0  0  0  0  0
    1.3135    0.9682   -3.9521 H   0  0  0  0  0  0  0  0  0  0  0  0
    1.7757    0.3425   -2.3279 H   0  0  0  0  0  0  0  0  0  0  0  0
   -3.0758   -1.3882   -4.6023 C   0  0  0  0  0  0  0  0  0  0  0  0
   -2.8181   -2.4687   -4.5727 H   0  0  0  0  0  0  0  0  0  0  0  0
   -2.7851   -1.0125   -5.6030 H   0  0  0  0  0  0  0  0  0  0  0  0
   -4.1761   -1.3104   -4.5060 H   0  0  0  0  0  0  0  0  0  0  0  0
   -3.0376    0.5053    0.0991 C   0  0  0  0  0  0  0  0  0  0  0  0
   -2.6271   -0.1386    0.9080 H   0  0  0  0  0  0  0  0  0  0  0  0
   -4.1219    0.3075    0.0086 H   0  0  0  0  0  0  0  0  0  0  0  0
   -2.8992    1.5558    0.4265 H   0  0  0  0  0  0  0  0  0  0  0  0
    1.8520    1.2286    2.5208 C   0  0  0  0  0  0  0  0  0  0  0  0
    1.2757    1.0789    3.8011 C   0  0  0  0  0  0  0  0  0  0  0  0
    2.1395    0.7892    4.8710 C   0  0  0  0  0  0  0  0  0  0  0  0
    1.7085    0.6637    5.8765 H   0  0  0  0  0  0  0  0  0  0  0  0
    3.5294    0.6610    4.6919 C   0  0  0  0  0  0  0  0  0  0  0  0
    4.0611    0.8576    3.4058 C   0  0  0  0  0  0  0  0  0  0  0  0
    5.1493    0.7873    3.2529 H   0  0  0  0  0  0  0  0  0  0  0  0
    3.2429    1.1498    2.2992 C   0  0  0  0  0  0  0  0  0  0  0  0
   -0.2082    1.2072    4.0040 C   0  0  0  0  0  0  0  0  0  0  0  0
   -0.6040    2.1478    3.5688 H   0  0  0  0  0  0  0  0  0  0  0  0
   -0.4622    1.1884    5.0802 H   0  0  0  0  0  0  0  0  0  0  0  0
   -0.7386    0.3701    3.4989 H   0  0  0  0  0  0  0  0  0  0  0  0
    4.4231    0.3104    5.8554 C   0  0  0  0  0  0  0  0  0  0  0  0
    4.1087    0.8312    6.7817 H   0  0  0  0  0  0  0  0  0  0  0  0
    5.4796    0.5710    5.6521 H   0  0  0  0  0  0  0  0  0  0  0  0
    4.3856   -0.7793    6.0688 H   0  0  0  0  0  0  0  0  0  0  0  0
    3.8249    1.3551    0.9283 C   0  0  0  0  0  0  0  0  0  0  0  0
    4.9279    1.4213    0.9742 H   0  0  0  0  0  0  0  0  0  0  0  0
    3.4392    2.2802    0.4526 H   0  0  0  0  0  0  0  0  0  0  0  0
    3.5490    0.5127    0.2556 H   0  0  0  0  0  0  0  0  0  0  0  0
    0.7571    4.0050    2.7905 H   0  0  0  0  0  0  0  0  0  0  0  0
    0.6608    4.9242    1.2525 H   0  0  0  0  0  0  0  0  0  0  0  0
    2.1791    4.0903    1.7206 H   0  0  0  0  0  0  0  0  0  0  0  0
   -2.0238    3.4552   -0.9323 H   0  0  0  0  0  0  0  0  0  0  0  0
   -0.7396    4.6583   -0.5862 H   0  0  0  0  0  0  0  0  0  0  0  0
   -0.6060    3.5703   -2.0060 H   0  0  0  0  0  0  0  0  0  0  0  0
  1  2  1  0  0  0  0
  1  5  1  0  0  0  0
  1  3  1  0  0  0  0
  1  4  1  0  0  0  0
  5  6  1  0  0  0  0
  5 16  1  0  0  0  0
  5  7  1  0  0  0  0
  7  9  1  0  0  0  0
  7  8  1  0  0  0  0
  9 10  1  0  0  0  0
  9 11  1  0  0  0  0
  9 12  1  0  0  0  0
 13 14  1  0  0  0  0
 13 15  1  0  0  0  0
  7 13  1  0  0  0  0
 13 16  1  0  0  0  0
 16 17  1  0  0  0  0
 16 18  1  0  0  0  0
 19 21  1  0  0  0  0
 19 22  1  0  0  0  0
 19 26  1  0  0  0  0
 20 21  1  0  0  0  0
 20 24  1  0  0  0  0
 20 46  1  0  0  0  0
 22 23  1  0  0  0  0
 22 24  2  0  0  0  0
 24 25  1  0  0  0  0
 26 27  2  0  0  0  0
 26 33  1  0  0  0  0
 27 28  1  0  0  0  0
 27 34  1  0  0  0  0
 28 29  1  0  0  0  0
 28 30  2  0  0  0  0
 30 31  1  0  0  0  0
 30 38  1  0  0  0  0
 31 32  1  0  0  0  0
 31 33  2  0  0  0  0
 33 42  1  0  0  0  0
 34 35  1  0  0  0  0
 34 36  1  0  0  0  0
 34 37  1  0  0  0  0
 38 39  1  0  0  0  0
 38 40  1  0  0  0  0
 38 41  1  0  0  0  0
 42 43  1  0  0  0  0
 42 44  1  0  0  0  0
 42 45  1  0  0  0  0
 46 47  2  0  0  0  0
 46 53  1  0  0  0  0
 47 48  1  0  0  0  0
 47 54  1  0  0  0  0
 48 49  1  0  0  0  0
 48 50  2  0  0  0  0
 50 51  1  0  0  0  0
 50 58  1  0  0  0  0
 51 52  1  0  0  0  0
 51 53  2  0  0  0  0
 53 62  1  0  0  0  0
 54 55  1  0  0  0  0
 54 56  1  0  0  0  0
 54 57  1  0  0  0  0
 58 59  1  0  0  0  0
 58 60  1  0  0  0  0
 58 61  1  0  0  0  0
 62 63  1  0  0  0  0
 62 64  1  0  0  0  0
 62 65  1  0  0  0  0
 25 66  1  0  0  0  0
 25 67  1  0  0  0  0
 25 68  1  0  0  0  0
 23 69  1  0  0  0  0
 23 70  1  0  0  0  0
 23 71  1  0  0  0  0
 16 21  1  0  0  0  0
M  END
>  <DFT-ENERGY>
-2212.76501288

$$$$
