
  CDK     08132413323D

 65 69  0  0  0  0  0  0  0  0999 V2000
   -1.1756    3.2754    0.6907 H   0  0  0  0  0  0  0  0  0  0  0  0
   -2.3905    3.1654    0.5295 C   0  0  0  0  0  0  0  0  0  0  0  0
   -2.4432    4.2770    0.5086 H   0  0  0  0  0  0  0  0  0  0  0  0
   -2.4241    2.3202   -0.7010 C   0  0  0  0  0  0  0  0  0  0  0  0
   -3.3024    1.6704   -0.8507 H   0  0  0  0  0  0  0  0  0  0  0  0
   -2.0101    2.7699   -1.6203 H   0  0  0  0  0  0  0  0  0  0  0  0
   -1.0397    1.5096    0.5911 Ru  0  0  0  0  0  0  0  0  0  0  0  0
   -2.6604    2.3775    1.7364 C   0  0  0  0  0  0  0  0  0  0  0  0
   -3.5116    1.6866    1.7535 H   0  0  0  0  0  0  0  0  0  0  0  0
   -2.3759    2.8219    2.7057 H   0  0  0  0  0  0  0  0  0  0  0  0
   -2.5409   -0.3844    0.8954 Cl  0  0  0  0  0  0  0  0  0  0  0  0
    0.8225    2.8685   -0.0748 Cl  0  0  0  0  0  0  0  0  0  0  0  0
    0.5178   -0.4575   -1.2337 N   0  0  0  0  0  0  0  0  0  0  0  0
    0.7070   -1.0320    0.8451 N   0  0  0  0  0  0  0  0  0  0  0  0
    0.1157   -0.1072    0.0274 C   0  0  0  0  0  0  0  0  0  0  0  0
    1.3431   -1.5958   -1.2099 C   0  0  0  0  0  0  0  0  0  0  0  0
    1.8924   -2.2018   -2.4536 C   0  0  0  0  0  0  0  0  0  0  0  0
    1.4682   -1.9574    0.1117 C   0  0  0  0  0  0  0  0  0  0  0  0
    2.2294   -3.0551    0.7684 C   0  0  0  0  0  0  0  0  0  0  0  0
    0.1755    0.2570   -2.4375 C   0  0  0  0  0  0  0  0  0  0  0  0
   -1.0755   -0.0010   -3.0444 C   0  0  0  0  0  0  0  0  0  0  0  0
   -1.4062    0.7352   -4.1927 C   0  0  0  0  0  0  0  0  0  0  0  0
   -2.3805    0.5513   -4.6721 H   0  0  0  0  0  0  0  0  0  0  0  0
   -0.5282    1.6852   -4.7486 C   0  0  0  0  0  0  0  0  0  0  0  0
    0.7265    1.8629   -4.1471 C   0  0  0  0  0  0  0  0  0  0  0  0
    1.4379    2.5815   -4.5832 H   0  0  0  0  0  0  0  0  0  0  0  0
    1.1102    1.1532   -2.9934 C   0  0  0  0  0  0  0  0  0  0  0  0
   -2.0048   -1.0483   -2.4986 C   0  0  0  0  0  0  0  0  0  0  0  0
   -1.4951   -2.0315   -2.4152 H   0  0  0  0  0  0  0  0  0  0  0  0
   -2.8850   -1.1732   -3.1567 H   0  0  0  0  0  0  0  0  0  0  0  0
   -2.3536   -0.7957   -1.4745 H   0  0  0  0  0  0  0  0  0  0  0  0
   -0.9356    2.4904   -5.9570 C   0  0  0  0  0  0  0  0  0  0  0  0
   -1.4398    1.8584   -6.7156 H   0  0  0  0  0  0  0  0  0  0  0  0
   -0.0650    2.9783   -6.4359 H   0  0  0  0  0  0  0  0  0  0  0  0
   -1.6529    3.2907   -5.6759 H   0  0  0  0  0  0  0  0  0  0  0  0
    2.4968    1.3360   -2.4323 C   0  0  0  0  0  0  0  0  0  0  0  0
    2.7737    2.4070   -2.4234 H   0  0  0  0  0  0  0  0  0  0  0  0
    3.2420    0.8053   -3.0642 H   0  0  0  0  0  0  0  0  0  0  0  0
    2.5845    0.9626   -1.3976 H   0  0  0  0  0  0  0  0  0  0  0  0
    0.5947   -1.0203    2.2806 C   0  0  0  0  0  0  0  0  0  0  0  0
    1.4011   -0.1090    3.0040 C   0  0  0  0  0  0  0  0  0  0  0  0
    1.2543   -0.0746    4.4001 C   0  0  0  0  0  0  0  0  0  0  0  0
    1.8724    0.6309    4.9770 H   0  0  0  0  0  0  0  0  0  0  0  0
    0.3588   -0.9239    5.0758 C   0  0  0  0  0  0  0  0  0  0  0  0
   -0.3741   -1.8535    4.3220 C   0  0  0  0  0  0  0  0  0  0  0  0
   -1.0573   -2.5470    4.8369 H   0  0  0  0  0  0  0  0  0  0  0  0
   -0.2714   -1.9304    2.9211 C   0  0  0  0  0  0  0  0  0  0  0  0
    2.4167    0.7623    2.3136 C   0  0  0  0  0  0  0  0  0  0  0  0
    3.0933    1.2297    3.0531 H   0  0  0  0  0  0  0  0  0  0  0  0
    1.9442    1.5712    1.7174 H   0  0  0  0  0  0  0  0  0  0  0  0
    3.0334    0.1752    1.6018 H   0  0  0  0  0  0  0  0  0  0  0  0
    0.1894   -0.8296    6.5713 C   0  0  0  0  0  0  0  0  0  0  0  0
    1.1466   -0.5912    7.0759 H   0  0  0  0  0  0  0  0  0  0  0  0
   -0.2039   -1.7722    6.9986 H   0  0  0  0  0  0  0  0  0  0  0  0
   -0.5273   -0.0229    6.8358 H   0  0  0  0  0  0  0  0  0  0  0  0
   -1.0420   -2.9894    2.1765 C   0  0  0  0  0  0  0  0  0  0  0  0
   -1.0195   -2.8357    1.0845 H   0  0  0  0  0  0  0  0  0  0  0  0
   -2.1047   -2.9801    2.4849 H   0  0  0  0  0  0  0  0  0  0  0  0
   -0.6344   -3.9968    2.4104 H   0  0  0  0  0  0  0  0  0  0  0  0
    2.8987   -2.6614    1.5605 H   0  0  0  0  0  0  0  0  0  0  0  0
    2.8506   -3.5884    0.0253 H   0  0  0  0  0  0  0  0  0  0  0  0
    1.5569   -3.7945    1.2493 H   0  0  0  0  0  0  0  0  0  0  0  0
    2.5942   -1.5176   -2.9726 H   0  0  0  0  0  0  0  0  0  0  0  0
    2.4347   -3.1358   -2.2164 H   0  0  0  0  0  0  0  0  0  0  0  0
    1.0846   -2.4446   -3.1739 H   0  0  0  0  0  0  0  0  0  0  0  0
  1  2  1  0  0  0  0
  1  7  1  0  0  0  0
  2  3  1  0  0  0  0
  2  4  1  0  0  0  0
  4  5  1  0  0  0  0
  6  4  1  0  0  0  0
  7  8  1  0  0  0  0
  7  4  1  0  0  0  0
  8  2  1  0  0  0  0
  8  9  1  0  0  0  0
 10  8  1  0  0  0  0
  7 11  1  0  0  0  0
  7 12  1  0  0  0  0
 13 15  1  0  0  0  0
 13 16  1  0  0  0  0
 13 20  1  0  0  0  0
 14 15  1  0  0  0  0
 14 18  1  0  0  0  0
 14 40  1  0  0  0  0
 16 17  1  0  0  0  0
 16 18  2  0  0  0  0
 18 19  1  0  0  0  0
 20 21  2  0  0  0  0
 20 27  1  0  0  0  0
 21 22  1  0  0  0  0
 21 28  1  0  0  0  0
 22 23  1  0  0  0  0
 22 24  2  0  0  0  0
 24 25  1  0  0  0  0
 24 32  1  0  0  0  0
 25 26  1  0  0  0  0
 25 27  2  0  0  0  0
 27 36  1  0  0  0  0
 28 29  1  0  0  0  0
 28 30  1  0  0  0  0
 28 31  1  0  0  0  0
 32 33  1  0  0  0  0
 32 34  1  0  0  0  0
 32 35  1  0  0  0  0
 36 37  1  0  0  0  0
 36 38  1  0  0  0  0
 36 39  1  0  0  0  0
 40 41  2  0  0  0  0
 40 47  1  0  0  0  0
 41 42  1  0  0  0  0
 41 48  1  0  0  0  0
 42 43  1  0  0  0  0
 42 44  2  0  0  0  0
 44 45  1  0  0  0  0
 44 52  1  0  0  0  0
 45 46  1  0  0  0  0
 45 47  2  0  0  0  0
 47 56  1  0  0  0  0
 48 49  1  0  0  0  0
 48 50  1  0  0  0  0
 48 51  1  0  0  0  0
 52 53  1  0  0  0  0
 52 54  1  0  0  0  0
 52 55  1  0  0  0  0
 56 57  1  0  0  0  0
 56 58  1  0  0  0  0
 56 59  1  0  0  0  0
 19 60  1  0  0  0  0
 19 61  1  0  0  0  0
 19 62  1  0  0  0  0
 17 63  1  0  0  0  0
 17 64  1  0  0  0  0
 17 65  1  0  0  0  0
  7 15  1  0  0  0  0
M  END
>  <DFT-ENERGY>
-2134.20851932

$$$$
