
  CDK     08132415423D

 65 68  0  0  0  0  0  0  0  0999 V2000
    1.5107   -0.8975   -0.1551 Ru  0  0  0  0  0  0  0  0  0  0  0  0
    3.0373   -0.8974   -1.3783 C   0  0  0  0  0  0  0  0  0  0  0  0
    2.8252   -1.2672   -2.3974 H   0  0  0  0  0  0  0  0  0  0  0  0
    3.4225   -2.0504   -0.3643 C   0  0  0  0  0  0  0  0  0  0  0  0
    3.4960   -2.9774   -0.9615 H   0  0  0  0  0  0  0  0  0  0  0  0
    2.3979   -2.3537    0.8037 C   0  0  0  0  0  0  0  0  0  0  0  0
    2.7881   -2.0915    1.8034 H   0  0  0  0  0  0  0  0  0  0  0  0
    1.9140   -3.3426    0.7120 H   0  0  0  0  0  0  0  0  0  0  0  0
    4.3632   -1.7345    0.1223 H   0  0  0  0  0  0  0  0  0  0  0  0
    3.6995   -0.0160   -1.3064 H   0  0  0  0  0  0  0  0  0  0  0  0
    0.4814   -2.5427   -1.5552 Cl  0  0  0  0  0  0  0  0  0  0  0  0
    2.7103    0.6450    1.2270 Cl  0  0  0  0  0  0  0  0  0  0  0  0
   -1.1622   -0.0194    0.9884 N   0  0  0  0  0  0  0  0  0  0  0  0
   -0.6499    1.1456   -0.7677 N   0  0  0  0  0  0  0  0  0  0  0  0
   -0.2021    0.1373    0.0332 C   0  0  0  0  0  0  0  0  0  0  0  0
   -2.2206    0.8905    0.7931 C   0  0  0  0  0  0  0  0  0  0  0  0
   -3.3984    0.9249    1.7021 C   0  0  0  0  0  0  0  0  0  0  0  0
   -1.8957    1.6293   -0.3203 C   0  0  0  0  0  0  0  0  0  0  0  0
   -2.6025    2.7341   -1.0235 C   0  0  0  0  0  0  0  0  0  0  0  0
   -1.0815   -0.9948    2.0459 C   0  0  0  0  0  0  0  0  0  0  0  0
   -1.6369   -2.2752    1.8296 C   0  0  0  0  0  0  0  0  0  0  0  0
   -1.5145   -3.2164    2.8665 C   0  0  0  0  0  0  0  0  0  0  0  0
   -1.9363   -4.2223    2.7167 H   0  0  0  0  0  0  0  0  0  0  0  0
   -0.8806   -2.9057    4.0827 C   0  0  0  0  0  0  0  0  0  0  0  0
   -0.3883   -1.6019    4.2701 C   0  0  0  0  0  0  0  0  0  0  0  0
    0.0801   -1.3321    5.2293 H   0  0  0  0  0  0  0  0  0  0  0  0
   -0.4823   -0.6200    3.2685 C   0  0  0  0  0  0  0  0  0  0  0  0
   -2.3280   -2.6210    0.5399 C   0  0  0  0  0  0  0  0  0  0  0  0
   -3.0498   -1.8361    0.2350 H   0  0  0  0  0  0  0  0  0  0  0  0
   -2.8726   -3.5791    0.6314 H   0  0  0  0  0  0  0  0  0  0  0  0
   -1.5865   -2.7140   -0.2840 H   0  0  0  0  0  0  0  0  0  0  0  0
   -0.7248   -3.9504    5.1592 C   0  0  0  0  0  0  0  0  0  0  0  0
   -1.5462   -4.6927    5.1299 H   0  0  0  0  0  0  0  0  0  0  0  0
   -0.7008   -3.4961    6.1689 H   0  0  0  0  0  0  0  0  0  0  0  0
    0.2264   -4.5098    5.0293 H   0  0  0  0  0  0  0  0  0  0  0  0
    0.0397    0.7724    3.4897 C   0  0  0  0  0  0  0  0  0  0  0  0
    0.9603    0.9399    2.8883 H   0  0  0  0  0  0  0  0  0  0  0  0
    0.2828    0.9355    4.5562 H   0  0  0  0  0  0  0  0  0  0  0  0
   -0.6937    1.5429    3.1762 H   0  0  0  0  0  0  0  0  0  0  0  0
    0.0747    1.6318   -1.9144 C   0  0  0  0  0  0  0  0  0  0  0  0
    0.9838    2.6982   -1.7385 C   0  0  0  0  0  0  0  0  0  0  0  0
    1.7029    3.1275   -2.8675 C   0  0  0  0  0  0  0  0  0  0  0  0
    2.4208    3.9542   -2.7511 H   0  0  0  0  0  0  0  0  0  0  0  0
    1.5240    2.5389   -4.1321 C   0  0  0  0  0  0  0  0  0  0  0  0
    0.5700    1.5147   -4.2676 C   0  0  0  0  0  0  0  0  0  0  0  0
    0.3928    1.0667   -5.2576 H   0  0  0  0  0  0  0  0  0  0  0  0
   -0.1775    1.0446   -3.1737 C   0  0  0  0  0  0  0  0  0  0  0  0
    1.1793    3.3468   -0.3963 C   0  0  0  0  0  0  0  0  0  0  0  0
    0.2123    3.5933    0.0876 H   0  0  0  0  0  0  0  0  0  0  0  0
    1.7681    4.2780   -0.4928 H   0  0  0  0  0  0  0  0  0  0  0  0
    1.7182    2.6586    0.2917 H   0  0  0  0  0  0  0  0  0  0  0  0
    2.3434    2.9902   -5.3149 C   0  0  0  0  0  0  0  0  0  0  0  0
    2.6314    4.0562   -5.2295 H   0  0  0  0  0  0  0  0  0  0  0  0
    1.7962    2.8518   -6.2677 H   0  0  0  0  0  0  0  0  0  0  0  0
    3.2835    2.4025   -5.3890 H   0  0  0  0  0  0  0  0  0  0  0  0
   -1.2008   -0.0443   -3.3390 C   0  0  0  0  0  0  0  0  0  0  0  0
   -1.4038   -0.2326   -4.4097 H   0  0  0  0  0  0  0  0  0  0  0  0
   -2.1586    0.2097   -2.8409 H   0  0  0  0  0  0  0  0  0  0  0  0
   -0.8378   -0.9890   -2.8774 H   0  0  0  0  0  0  0  0  0  0  0  0
   -1.9923    3.6606   -1.0450 H   0  0  0  0  0  0  0  0  0  0  0  0
   -3.5582    2.9621   -0.5165 H   0  0  0  0  0  0  0  0  0  0  0  0
   -2.8244    2.4705   -2.0782 H   0  0  0  0  0  0  0  0  0  0  0  0
   -3.1005    1.1439    2.7483 H   0  0  0  0  0  0  0  0  0  0  0  0
   -4.1118    1.7042    1.3763 H   0  0  0  0  0  0  0  0  0  0  0  0
   -3.9313   -0.0482    1.7164 H   0  0  0  0  0  0  0  0  0  0  0  0
  2  4  1  0  0  0  0
  2  1  1  0  0  0  0
  2  3  1  0  0  0  0
  4  6  1  0  0  0  0
  4  5  1  0  0  0  0
  6  1  1  0  0  0  0
  6  8  1  0  0  0  0
  7  6  1  0  0  0  0
  9  4  1  0  0  0  0
 10  2  1  0  0  0  0
  1 11  1  0  0  0  0
  1 12  1  0  0  0  0
 13 15  1  0  0  0  0
 13 16  1  0  0  0  0
 13 20  1  0  0  0  0
 14 15  1  0  0  0  0
 14 18  1  0  0  0  0
 14 40  1  0  0  0  0
 16 17  1  0  0  0  0
 16 18  2  0  0  0  0
 18 19  1  0  0  0  0
 20 21  2  0  0  0  0
 20 27  1  0  0  0  0
 21 22  1  0  0  0  0
 21 28  1  0  0  0  0
 22 23  1  0  0  0  0
 22 24  2  0  0  0  0
 24 25  1  0  0  0  0
 24 32  1  0  0  0  0
 25 26  1  0  0  0  0
 25 27  2  0  0  0  0
 27 36  1  0  0  0  0
 28 29  1  0  0  0  0
 28 30  1  0  0  0  0
 28 31  1  0  0  0  0
 32 33  1  0  0  0  0
 32 34  1  0  0  0  0
 32 35  1  0  0  0  0
 36 37  1  0  0  0  0
 36 38  1  0  0  0  0
 36 39  1  0  0  0  0
 40 41  2  0  0  0  0
 40 47  1  0  0  0  0
 41 42  1  0  0  0  0
 41 48  1  0  0  0  0
 42 43  1  0  0  0  0
 42 44  2  0  0  0  0
 44 45  1  0  0  0  0
 44 52  1  0  0  0  0
 45 46  1  0  0  0  0
 45 47  2  0  0  0  0
 47 56  1  0  0  0  0
 48 49  1  0  0  0  0
 48 50  1  0  0  0  0
 48 51  1  0  0  0  0
 52 53  1  0  0  0  0
 52 54  1  0  0  0  0
 52 55  1  0  0  0  0
 56 57  1  0  0  0  0
 56 58  1  0  0  0  0
 56 59  1  0  0  0  0
 19 60  1  0  0  0  0
 19 61  1  0  0  0  0
 19 62  1  0  0  0  0
 17 63  1  0  0  0  0
 17 64  1  0  0  0  0
 17 65  1  0  0  0  0
  1 15  1  0  0  0  0
M  END
>  <DFT-ENERGY>
-2134.25437328

$$$$
