
  CDK     04192416303D

 70 73  0  0  0  0  0  0  0  0999 V2000
   -0.4041   -4.1454   -2.1638 C   0  0  0  0  0  0  0  0  0  0  0  0
    0.6193   -4.0517   -2.5671 H   0  0  0  0  0  0  0  0  0  0  0  0
   -0.8737   -5.0812   -2.5410 H   0  0  0  0  0  0  0  0  0  0  0  0
   -1.0114   -3.3082   -2.5670 H   0  0  0  0  0  0  0  0  0  0  0  0
   -0.4247   -4.1734   -0.6525 C   0  0  0  0  0  0  0  0  0  0  0  0
   -1.4158   -4.3366   -0.1897 H   0  0  0  0  0  0  0  0  0  0  0  0
    0.6825   -4.5649    0.1452 C   0  0  0  0  0  0  0  0  0  0  0  0
    1.6579   -4.6582   -0.3636 H   0  0  0  0  0  0  0  0  0  0  0  0
    0.4550   -5.3777    1.3990 C   0  0  0  0  0  0  0  0  0  0  0  0
    1.3373   -5.3988    2.0660 H   0  0  0  0  0  0  0  0  0  0  0  0
    0.2409   -6.4255    1.0959 H   0  0  0  0  0  0  0  0  0  0  0  0
   -0.4222   -4.9972    1.9582 H   0  0  0  0  0  0  0  0  0  0  0  0
    1.3794   -2.7297    1.3830 C   0  0  0  0  0  0  0  0  0  0  0  0
    1.0020   -2.9944    2.3953 H   0  0  0  0  0  0  0  0  0  0  0  0
    2.4810   -2.7626    1.2214 H   0  0  0  0  0  0  0  0  0  0  0  0
    0.2454   -2.2257    0.0446 Ru  0  0  0  0  0  0  0  0  0  0  0  0
   -1.6440   -2.4399    1.5263 Cl  0  0  0  0  0  0  0  0  0  0  0  0
    2.1112   -2.1731   -1.4756 Cl  0  0  0  0  0  0  0  0  0  0  0  0
    0.0499    0.1563    0.0074 P   0  0  0  0  0  0  0  0  0  0  0  0
   -1.6392    0.6009   -0.6715 C   0  0  0  0  0  0  0  0  0  0  0  0
   -1.5416    1.6250   -1.0929 H   0  0  0  0  0  0  0  0  0  0  0  0
   -1.9146   -0.3896   -1.8237 C   0  0  0  0  0  0  0  0  0  0  0  0
   -1.0859   -0.3765   -2.5626 H   0  0  0  0  0  0  0  0  0  0  0  0
   -1.9462   -1.4164   -1.3858 H   0  0  0  0  0  0  0  0  0  0  0  0
   -0.2920    0.3614    2.8606 C   0  0  0  0  0  0  0  0  0  0  0  0
   -1.3963    0.4190    2.7745 H   0  0  0  0  0  0  0  0  0  0  0  0
   -0.0556   -0.7186    2.8825 H   0  0  0  0  0  0  0  0  0  0  0  0
   -4.4048   -0.0972   -1.4949 C   0  0  0  0  0  0  0  0  0  0  0  0
   -4.5130   -1.1149   -1.0578 H   0  0  0  0  0  0  0  0  0  0  0  0
   -5.3651    0.1383   -1.9989 H   0  0  0  0  0  0  0  0  0  0  0  0
    1.2546    0.9402   -1.2164 C   0  0  0  0  0  0  0  0  0  0  0  0
    1.3487    0.1245   -1.9664 H   0  0  0  0  0  0  0  0  0  0  0  0
    0.3669    1.0224    1.6400 C   0  0  0  0  0  0  0  0  0  0  0  0
    1.4669    0.8847    1.7491 H   0  0  0  0  0  0  0  0  0  0  0  0
   -2.7967    0.6056    0.3396 C   0  0  0  0  0  0  0  0  0  0  0  0
   -2.8453   -0.3828    0.8414 H   0  0  0  0  0  0  0  0  0  0  0  0
   -2.6140    1.3624    1.1282 H   0  0  0  0  0  0  0  0  0  0  0  0
   -0.1373    2.5568    4.1241 C   0  0  0  0  0  0  0  0  0  0  0  0
   -1.2393    2.7115    4.0795 H   0  0  0  0  0  0  0  0  0  0  0  0
    0.2118    3.0450    5.0578 H   0  0  0  0  0  0  0  0  0  0  0  0
   -4.1275    0.9048   -0.3677 C   0  0  0  0  0  0  0  0  0  0  0  0
   -4.9520    0.8906    0.3748 H   0  0  0  0  0  0  0  0  0  0  0  0
   -4.1024    1.9348   -0.7924 H   0  0  0  0  0  0  0  0  0  0  0  0
   -3.2567   -0.1068   -2.5112 C   0  0  0  0  0  0  0  0  0  0  0  0
   -3.2024    0.8827   -3.0194 H   0  0  0  0  0  0  0  0  0  0  0  0
   -3.4384   -0.8596   -3.3064 H   0  0  0  0  0  0  0  0  0  0  0  0
    0.1585    1.0526    4.1547 C   0  0  0  0  0  0  0  0  0  0  0  0
    1.2534    0.8984    4.2918 H   0  0  0  0  0  0  0  0  0  0  0  0
   -0.3376    0.5741    5.0242 H   0  0  0  0  0  0  0  0  0  0  0  0
    0.0821    2.5360    1.5932 C   0  0  0  0  0  0  0  0  0  0  0  0
    0.6048    3.0070    0.7381 H   0  0  0  0  0  0  0  0  0  0  0  0
   -1.0050    2.7037    1.4324 H   0  0  0  0  0  0  0  0  0  0  0  0
    2.6512    1.0948   -0.5872 C   0  0  0  0  0  0  0  0  0  0  0  0
    2.6341    1.8976    0.1836 H   0  0  0  0  0  0  0  0  0  0  0  0
    2.9397    0.1482   -0.0871 H   0  0  0  0  0  0  0  0  0  0  0  0
    0.8291    2.2182   -1.9587 C   0  0  0  0  0  0  0  0  0  0  0  0
    0.7098    3.0680   -1.2514 H   0  0  0  0  0  0  0  0  0  0  0  0
   -0.1527    2.0804   -2.4554 H   0  0  0  0  0  0  0  0  0  0  0  0
    0.5136    3.2154    2.9027 C   0  0  0  0  0  0  0  0  0  0  0  0
    0.2693    4.2975    2.8603 H   0  0  0  0  0  0  0  0  0  0  0  0
    1.6213    3.1457    2.9958 H   0  0  0  0  0  0  0  0  0  0  0  0
    3.2818    2.7273   -2.4151 C   0  0  0  0  0  0  0  0  0  0  0  0
    3.2906    3.5910   -1.7112 H   0  0  0  0  0  0  0  0  0  0  0  0
    4.0212    2.9623   -3.2089 H   0  0  0  0  0  0  0  0  0  0  0  0
    1.8802    2.5860   -3.0206 C   0  0  0  0  0  0  0  0  0  0  0  0
    1.8978    1.7879   -3.7962 H   0  0  0  0  0  0  0  0  0  0  0  0
    1.5795    3.5221   -3.5362 H   0  0  0  0  0  0  0  0  0  0  0  0
    3.6866    1.4555   -1.6605 C   0  0  0  0  0  0  0  0  0  0  0  0
    4.6863    1.5793   -1.1947 H   0  0  0  0  0  0  0  0  0  0  0  0
    3.7684    0.6039   -2.3711 H   0  0  0  0  0  0  0  0  0  0  0  0
  1  2  1  0  0  0  0
  1  5  1  0  0  0  0
  3  1  1  0  0  0  0
  4  1  1  0  0  0  0
  5  6  1  0  0  0  0
  5 16  1  0  0  0  0
  5  7  1  0  0  0  0
  7  9  1  0  0  0  0
  7  8  1  0  0  0  0
  9 10  1  0  0  0  0
 11  9  1  0  0  0  0
 12  9  1  0  0  0  0
 13 14  1  0  0  0  0
 13 15  1  0  0  0  0
 13  7  1  0  0  0  0
 16 13  1  0  0  0  0
 16 17  1  0  0  0  0
 16 18  1  0  0  0  0
 19 20  1  0  0  0  0
 20 21  1  0  0  0  0
 20 22  1  0  0  0  0
 22 23  1  0  0  0  0
 22 24  1  0  0  0  0
 25 26  1  0  0  0  0
 25 27  1  0  0  0  0
 28 29  1  0  0  0  0
 28 30  1  0  0  0  0
 19 31  1  0  0  0  0
 31 32  1  0  0  0  0
 19 33  1  0  0  0  0
 33 34  1  0  0  0  0
 20 35  1  0  0  0  0
 35 36  1  0  0  0  0
 35 37  1  0  0  0  0
 38 39  1  0  0  0  0
 38 40  1  0  0  0  0
 28 41  1  0  0  0  0
 41 42  1  0  0  0  0
 41 43  1  0  0  0  0
 22 44  1  0  0  0  0
 44 45  1  0  0  0  0
 44 46  1  0  0  0  0
 25 47  1  0  0  0  0
 47 48  1  0  0  0  0
 47 49  1  0  0  0  0
 33 50  1  0  0  0  0
 50 51  1  0  0  0  0
 50 52  1  0  0  0  0
 31 53  1  0  0  0  0
 53 54  1  0  0  0  0
 53 55  1  0  0  0  0
 31 56  1  0  0  0  0
 56 57  1  0  0  0  0
 56 58  1  0  0  0  0
 38 59  1  0  0  0  0
 59 60  1  0  0  0  0
 59 61  1  0  0  0  0
 62 63  1  0  0  0  0
 62 64  1  0  0  0  0
 56 65  1  0  0  0  0
 65 66  1  0  0  0  0
 65 67  1  0  0  0  0
 53 68  1  0  0  0  0
 68 69  1  0  0  0  0
 68 70  1  0  0  0  0
 25 33  1  0  0  0  0
 28 44  1  0  0  0  0
 35 41  1  0  0  0  0
 38 47  1  0  0  0  0
 50 59  1  0  0  0  0
 62 65  1  0  0  0  0
 62 68  1  0  0  0  0
 16 19  1  0  0  0  0
M  END
>  <DFT-ENERGY>
-2257.21505593

$$$$
