IQODAUMODN1_A1
  CDK     02022410423D

 75 79  0  0  0  0  0  0  0  0999 V2000
    0.5596   -0.5961    0.1140 Ru  0  0  0  0  0  0  0  0  0  0  0  0
    1.9488   -2.3739    0.1140 O   0  0  0  0  0  0  0  0  0  0  0  0
   -0.4445   -1.8063   -0.8193 C   0  0  0  0  0  0  0  0  0  0  0  0
   -1.4672   -1.5735   -1.1122 H   0  0  0  0  0  0  0  0  0  0  0  0
    3.1746   -2.6094    0.8892 C   0  0  0  0  0  0  0  0  0  0  0  0
    3.9348   -3.0142    0.1886 H   0  0  0  0  0  0  0  0  0  0  0  0
    3.4861   -1.1885    1.3375 C   0  0  0  0  0  0  0  0  0  0  0  0
    4.4492   -1.1184    1.8481 H   0  0  0  0  0  0  0  0  0  0  0  0
    2.7052   -0.8047    2.0270 H   0  0  0  0  0  0  0  0  0  0  0  0
    3.5010   -0.4973    0.4698 H   0  0  0  0  0  0  0  0  0  0  0  0
    2.8419   -3.5522    2.0318 C   0  0  0  0  0  0  0  0  0  0  0  0
    1.8955   -3.2358    2.5149 H   0  0  0  0  0  0  0  0  0  0  0  0
    3.6162   -3.5458    2.8052 H   0  0  0  0  0  0  0  0  0  0  0  0
    2.6951   -4.5852    1.7007 H   0  0  0  0  0  0  0  0  0  0  0  0
    1.4438   -3.3661   -0.6844 C   0  0  0  0  0  0  0  0  0  0  0  0
    2.0968   -4.5352   -1.0331 C   0  0  0  0  0  0  0  0  0  0  0  0
    3.1026   -4.7542   -0.6823 H   0  0  0  0  0  0  0  0  0  0  0  0
    1.4393   -5.4364   -1.8642 C   0  0  0  0  0  0  0  0  0  0  0  0
    1.9481   -6.3589   -2.1516 H   0  0  0  0  0  0  0  0  0  0  0  0
    0.1540   -5.1864   -2.3358 C   0  0  0  0  0  0  0  0  0  0  0  0
   -0.3402   -5.9112   -2.9803 H   0  0  0  0  0  0  0  0  0  0  0  0
   -0.4876   -4.0167   -1.9755 C   0  0  0  0  0  0  0  0  0  0  0  0
   -1.4989   -3.8235   -2.3301 H   0  0  0  0  0  0  0  0  0  0  0  0
    0.1518   -3.0812   -1.1601 C   0  0  0  0  0  0  0  0  0  0  0  0
   -0.0080   -1.2036    2.3346 Cl  0  0  0  0  0  0  0  0  0  0  0  0
    1.8964    0.2135   -1.5639 Cl  0  0  0  0  0  0  0  0  0  0  0  0
   -1.8498    1.2846   -0.3311 N   0  0  0  0  0  0  0  0  0  0  0  0
   -0.1305    2.1901    0.7529 N   0  0  0  0  0  0  0  0  0  0  0  0
   -0.5741    1.0103    0.1475 C   0  0  0  0  0  0  0  0  0  0  0  0
   -2.3195    2.6881   -0.0476 C   0  0  0  0  0  0  0  0  0  0  0  0
   -3.2457    2.6658    0.5603 H   0  0  0  0  0  0  0  0  0  0  0  0
   -2.5500    3.2124   -0.9961 H   0  0  0  0  0  0  0  0  0  0  0  0
   -1.1302    3.3134    0.7041 C   0  0  0  0  0  0  0  0  0  0  0  0
   -0.6993    4.1866    0.1748 H   0  0  0  0  0  0  0  0  0  0  0  0
   -1.3936    3.6354    1.7315 H   0  0  0  0  0  0  0  0  0  0  0  0
   -2.7625    0.4325   -1.0460 C   0  0  0  0  0  0  0  0  0  0  0  0
   -2.7105    0.3848   -2.4595 C   0  0  0  0  0  0  0  0  0  0  0  0
   -3.6933   -0.3375   -3.1480 C   0  0  0  0  0  0  0  0  0  0  0  0
   -3.6717   -0.3671   -4.2353 H   0  0  0  0  0  0  0  0  0  0  0  0
   -4.6946   -1.0275   -2.4509 C   0  0  0  0  0  0  0  0  0  0  0  0
   -4.6946   -1.0301   -1.0476 C   0  0  0  0  0  0  0  0  0  0  0  0
   -5.4508   -1.5985   -0.5101 H   0  0  0  0  0  0  0  0  0  0  0  0
   -3.7264   -0.3188   -0.3302 C   0  0  0  0  0  0  0  0  0  0  0  0
   -1.5987    1.0532   -3.1951 C   0  0  0  0  0  0  0  0  0  0  0  0
   -1.5889    0.8180   -4.2665 H   0  0  0  0  0  0  0  0  0  0  0  0
   -0.6139    0.7319   -2.7895 H   0  0  0  0  0  0  0  0  0  0  0  0
   -1.6368    2.1458   -3.0963 H   0  0  0  0  0  0  0  0  0  0  0  0
   -5.7509   -1.7820   -3.1905 C   0  0  0  0  0  0  0  0  0  0  0  0
   -5.6996   -1.6349   -4.2772 H   0  0  0  0  0  0  0  0  0  0  0  0
   -6.7587   -1.4791   -2.8715 H   0  0  0  0  0  0  0  0  0  0  0  0
   -5.6657   -2.8636   -3.0072 H   0  0  0  0  0  0  0  0  0  0  0  0
   -3.6774   -0.3852    1.1585 C   0  0  0  0  0  0  0  0  0  0  0  0
   -2.6616   -0.6798    1.5028 H   0  0  0  0  0  0  0  0  0  0  0  0
   -4.3757   -1.1191    1.5795 H   0  0  0  0  0  0  0  0  0  0  0  0
   -3.8965    0.5846    1.6234 H   0  0  0  0  0  0  0  0  0  0  0  0
    1.1302    2.4596    1.3987 C   0  0  0  0  0  0  0  0  0  0  0  0
    2.1945    3.0249    0.6513 C   0  0  0  0  0  0  0  0  0  0  0  0
    3.3803    3.3723    1.3118 C   0  0  0  0  0  0  0  0  0  0  0  0
    4.2021    3.7998    0.7412 H   0  0  0  0  0  0  0  0  0  0  0  0
    3.5215    3.1747    2.6923 C   0  0  0  0  0  0  0  0  0  0  0  0
    2.4642    2.6209    3.4235 C   0  0  0  0  0  0  0  0  0  0  0  0
    2.5691    2.4637    4.4948 H   0  0  0  0  0  0  0  0  0  0  0  0
    1.2623    2.2626    2.7949 C   0  0  0  0  0  0  0  0  0  0  0  0
    2.0952    3.2786   -0.8155 C   0  0  0  0  0  0  0  0  0  0  0  0
    1.1852    2.8590   -1.2712 H   0  0  0  0  0  0  0  0  0  0  0  0
    2.9296    2.7942   -1.3537 H   0  0  0  0  0  0  0  0  0  0  0  0
    2.1287    4.3504   -1.0444 H   0  0  0  0  0  0  0  0  0  0  0  0
    4.7969    3.5602    3.3692 C   0  0  0  0  0  0  0  0  0  0  0  0
    5.6444    2.9806    2.9748 H   0  0  0  0  0  0  0  0  0  0  0  0
    4.7708    3.3956    4.4541 H   0  0  0  0  0  0  0  0  0  0  0  0
    5.0291    4.6227    3.2085 H   0  0  0  0  0  0  0  0  0  0  0  0
    0.1636    1.6979    3.6303 C   0  0  0  0  0  0  0  0  0  0  0  0
    0.5069    0.8004    4.1761 H   0  0  0  0  0  0  0  0  0  0  0  0
   -0.7014    1.3523    3.0428 H   0  0  0  0  0  0  0  0  0  0  0  0
   -0.1957    2.4208    4.3722 H   0  0  0  0  0  0  0  0  0  0  0  0
  2  1  1  0  0  0  0
  3  1  2  0  0  0  0
  4  3  1  0  0  0  0
  5  2  1  0  0  0  0
  6  5  1  0  0  0  0
  7  5  1  0  0  0  0
  8  7  1  0  0  0  0
  9  7  1  0  0  0  0
 10  7  1  0  0  0  0
 11  5  1  0  0  0  0
 12 11  1  0  0  0  0
 13 11  1  0  0  0  0
 14 11  1  0  0  0  0
 15  2  1  0  0  0  0
 15 24  1  0  0  0  0
 16 15  2  0  0  0  0
 17 16  1  0  0  0  0
 18 16  1  0  0  0  0
 19 18  1  0  0  0  0
 20 18  2  0  0  0  0
 21 20  1  0  0  0  0
 22 20  1  0  0  0  0
 22 24  2  0  0  0  0
 23 22  1  0  0  0  0
 24  3  1  0  0  0  0
  1 25  1  0  0  0  0
  1 26  1  0  0  0  0
 27 29  1  0  0  0  0
 27 30  1  0  0  0  0
 27 36  1  0  0  0  0
 28 29  1  0  0  0  0
 28 33  1  0  0  0  0
 28 56  1  0  0  0  0
 30 31  1  0  0  0  0
 30 32  1  0  0  0  0
 30 33  1  0  0  0  0
 33 34  1  0  0  0  0
 33 35  1  0  0  0  0
 36 37  1  0  0  0  0
 36 43  2  0  0  0  0
 37 38  2  0  0  0  0
 37 44  1  0  0  0  0
 38 39  1  0  0  0  0
 38 40  1  0  0  0  0
 40 41  2  0  0  0  0
 40 48  1  0  0  0  0
 41 42  1  0  0  0  0
 41 43  1  0  0  0  0
 43 52  1  0  0  0  0
 44 45  1  0  0  0  0
 44 46  1  0  0  0  0
 44 47  1  0  0  0  0
 48 49  1  0  0  0  0
 48 50  1  0  0  0  0
 48 51  1  0  0  0  0
 52 53  1  0  0  0  0
 52 54  1  0  0  0  0
 52 55  1  0  0  0  0
 56 57  1  0  0  0  0
 56 63  2  0  0  0  0
 57 58  2  0  0  0  0
 57 64  1  0  0  0  0
 58 59  1  0  0  0  0
 58 60  1  0  0  0  0
 60 61  2  0  0  0  0
 60 68  1  0  0  0  0
 61 62  1  0  0  0  0
 61 63  1  0  0  0  0
 63 72  1  0  0  0  0
 64 65  1  0  0  0  0
 64 66  1  0  0  0  0
 64 67  1  0  0  0  0
 68 69  1  0  0  0  0
 68 70  1  0  0  0  0
 68 71  1  0  0  0  0
 72 73  1  0  0  0  0
 72 74  1  0  0  0  0
 72 75  1  0  0  0  0
  1 29  1  0  0  0  0
M  END
> <FrozenCore-PM6_ENERGY>
9.873

> <RMSD_CONF_CG-CS>
0.605019

> <RMSD_CONF_GO-CS>
0.000000

> <UID>


> <freeEnergyA>
-2402.13795464

> <freeEnergyF>
-2402.12245379

> <freeEnergyE>
-2402.13795464

> <freeEnergyC>
-2056.88241022

> <freeEnergyL>
-924.27060479

> <freeEnergyX>
-2135.41525712

> <freeEnergyZ>
-2056.86024307

> <freeEnergyD>
-2056.9047497

> <G_Propene>
-117.738020895

> <G_Ethene>
-78.4716324751

> <G_HoveydaProd>
-502.204109499

> <G_SIMes>
-924.27249048

> <G_HG_RuCl2_SIMes>
-2402.13728523

> <DG_referenceProductionBarrier>
0.01468968

> <hartree_to_kcalmol>
627.49467516

> <DFT_IDENTIFIER>
1706935005107

> <DFT_MACHINE>
158.36.42.38

> <XTB_IDENTIFIER>
NREC

> <XTB_MACHINE>
NREC

> <DE_Synth>
-1.6033116445013160

> <DESCRIPTOR_DEFINITION_1>
desc1=( echo "1 * ( e( $hartree_to_kcalmol * ( ( $freeEnergyZ - $freeEnergyD ) - ( $freeEnergyX + 2*$G_Ethene - $freeEnergyD - 2*$G_Propene ) - $DDG_reference_HGII ) / $kT ) ) " | bc -l )

> <DESCRIPTOR_DEFINITION_2>
desc2=$( echo "1 * ( $hartree_to_kcalmol * ( ( $freeEnergyZ - $freeEnergyD ) - ( $freeEnergyX + 2*$G_Ethene - $freeEnergyD - 2*$G_Propene ) ) )" | bc -l )

> <DESCRIPTOR_DEFINITION_3>
desc3=$( echo "1 * $hartree_to_kcalmol * ( $DG_referenceProductionBarrier - ( $freeEnergyX + 2*$G_Ethene - $freeEnergyD - 2*$G_Propene ) )" | bc -l )

> <WEIGHT_DEFINITION_1>
w1=$( echo "1 / ( 1 + e( $hartree_to_kcalmol * ( ( ( $freeEnergyX + 2*$G_Ethene - $freeEnergyD - 2*$G_Propene ) ) - ( $DG_referenceProductionBarrier + $magnitude4 ) ) / $kT ) )" | bc -l )

> <WEIGHT_DEFINITION_2>
w2=$( echo "1 / ( 1 + e( $hartree_to_kcalmol * ( ABS( $freeEnergyC + $G_HoveydaProd - $freeEnergyA - 2*${G_Ethene} - $DG_referencePrecursorStabilityHII ) - ( $DDG_referencePrecursorStability + $magnitude1 ) ) / $kT ) )" | bc -l )

> <WEIGHT_DEFINITION_3>
w3=$( echo "1 / ( 1 + e( $hartree_to_kcalmol * ( ( $freeEnergyE + $G_SIMes - $G_HG_RuCl2_SIMes - $freeEnergyL ) - ( $DG_referenceSynt  + $magnitude1 ) ) / $kT ) )" | bc -l )

> <WEIGHT_DEFINITION_4>
w4=$( echo "1 / ( 1 + e( $hartree_to_kcalmol * ( - ( $freeEnergyF - $freeEnergyA ) + $magnitude2 ) / $kT ) )" | bc -l )

> <FITNESS_DEFINITION>
fitness=$( echo "( $desc1 + $desc2 + $desc3 ) * $w1 * $w2 * $w3 * $w4" | bc -l )

> <DESCRIPTOR_1>
1.00598515438776097750

> <DESCRIPTOR_2>
13.953730990913638632

> <DESCRIPTOR_3>
.001258126823695800

> <WEIGHT_1>
.99990020466190626957

> <WEIGHT_2>
.99999999609601635165

> <WEIGHT_3>
.99999999999904260984

> <WEIGHT_4>
.99998370904598823827

> <FITNESS>
14.95923747400359063305

$$$$
