
  CDK     02032404373D

 61 64  0  0  0  0  0  0  0  0999 V2000
    0.7584    1.2560   -0.1393 Ru  0  0  0  0  0  0  0  0  0  0  0  0
    0.6906    2.8352   -1.2961 C   0  0  0  0  0  0  0  0  0  0  0  0
    0.9859    2.6631   -2.3460 H   0  0  0  0  0  0  0  0  0  0  0  0
    1.9121    3.1747   -0.3480 C   0  0  0  0  0  0  0  0  0  0  0  0
    2.7967    3.2693   -1.0034 H   0  0  0  0  0  0  0  0  0  0  0  0
    2.2852    2.0989    0.7521 C   0  0  0  0  0  0  0  0  0  0  0  0
    2.0962    2.4444    1.7836 H   0  0  0  0  0  0  0  0  0  0  0  0
    3.2593    1.6112    0.5702 H   0  0  0  0  0  0  0  0  0  0  0  0
    1.6370    4.0952    0.1980 H   0  0  0  0  0  0  0  0  0  0  0  0
   -0.1811    3.4940   -1.1346 H   0  0  0  0  0  0  0  0  0  0  0  0
    2.2878    0.2936   -1.7081 Cl  0  0  0  0  0  0  0  0  0  0  0  0
   -0.6556    2.4077    1.4098 Cl  0  0  0  0  0  0  0  0  0  0  0  0
   -1.1766   -0.9080   -0.8391 N   0  0  0  0  0  0  0  0  0  0  0  0
   -0.1237   -1.3343    1.0543 N   0  0  0  0  0  0  0  0  0  0  0  0
   -0.2574   -0.4503    0.0404 C   0  0  0  0  0  0  0  0  0  0  0  0
   -1.8273   -2.1419   -0.3521 C   0  0  0  0  0  0  0  0  0  0  0  0
   -1.8774   -2.8989   -1.1578 H   0  0  0  0  0  0  0  0  0  0  0  0
   -2.8635   -1.9186   -0.0177 H   0  0  0  0  0  0  0  0  0  0  0  0
   -0.9109   -2.5611    0.8129 C   0  0  0  0  0  0  0  0  0  0  0  0
   -1.4706   -2.8489    1.7233 H   0  0  0  0  0  0  0  0  0  0  0  0
   -0.2343   -3.3992    0.5391 H   0  0  0  0  0  0  0  0  0  0  0  0
   -1.5943   -0.1859   -2.0093 C   0  0  0  0  0  0  0  0  0  0  0  0
   -2.5722    0.8279   -1.8908 C   0  0  0  0  0  0  0  0  0  0  0  0
   -2.9149    1.5436   -3.0530 C   0  0  0  0  0  0  0  0  0  0  0  0
   -3.6696    2.3418   -2.9760 H   0  0  0  0  0  0  0  0  0  0  0  0
   -2.3350    1.2606   -4.3007 C   0  0  0  0  0  0  0  0  0  0  0  0
   -1.4108    0.2026   -4.3852 C   0  0  0  0  0  0  0  0  0  0  0  0
   -0.9697   -0.0554   -5.3605 H   0  0  0  0  0  0  0  0  0  0  0  0
   -1.0300   -0.5411   -3.2575 C   0  0  0  0  0  0  0  0  0  0  0  0
   -3.2362    1.1373   -0.5767 C   0  0  0  0  0  0  0  0  0  0  0  0
   -4.1170    1.7888   -0.7296 H   0  0  0  0  0  0  0  0  0  0  0  0
   -2.5391    1.6532    0.1193 H   0  0  0  0  0  0  0  0  0  0  0  0
   -3.5794    0.2172   -0.0615 H   0  0  0  0  0  0  0  0  0  0  0  0
   -2.6892    2.0685   -5.5237 C   0  0  0  0  0  0  0  0  0  0  0  0
   -3.6247    2.6421   -5.3783 H   0  0  0  0  0  0  0  0  0  0  0  0
   -2.8122    1.4230   -6.4163 H   0  0  0  0  0  0  0  0  0  0  0  0
   -1.8852    2.7974   -5.7611 H   0  0  0  0  0  0  0  0  0  0  0  0
   -0.0459   -1.6732   -3.3696 C   0  0  0  0  0  0  0  0  0  0  0  0
    0.8761   -1.4355   -2.7989 H   0  0  0  0  0  0  0  0  0  0  0  0
    0.2326   -1.8479   -4.4257 H   0  0  0  0  0  0  0  0  0  0  0  0
   -0.4597   -2.6211   -2.9666 H   0  0  0  0  0  0  0  0  0  0  0  0
    0.7951   -1.1689    2.1468 C   0  0  0  0  0  0  0  0  0  0  0  0
    0.3029   -0.6448    3.3656 C   0  0  0  0  0  0  0  0  0  0  0  0
    1.2176   -0.4463    4.4115 C   0  0  0  0  0  0  0  0  0  0  0  0
    0.8498   -0.0284    5.3615 H   0  0  0  0  0  0  0  0  0  0  0  0
    2.5814   -0.7659    4.2770 C   0  0  0  0  0  0  0  0  0  0  0  0
    3.0187   -1.3355    3.0697 C   0  0  0  0  0  0  0  0  0  0  0  0
    4.0748   -1.6276    2.9608 H   0  0  0  0  0  0  0  0  0  0  0  0
    2.1443   -1.5605    1.9903 C   0  0  0  0  0  0  0  0  0  0  0  0
   -1.1515   -0.2980    3.5304 C   0  0  0  0  0  0  0  0  0  0  0  0
   -1.4152    0.5569    2.8724 H   0  0  0  0  0  0  0  0  0  0  0  0
   -1.3712   -0.0140    4.5765 H   0  0  0  0  0  0  0  0  0  0  0  0
   -1.8131   -1.1473    3.2614 H   0  0  0  0  0  0  0  0  0  0  0  0
    3.5458   -0.4996    5.4053 C   0  0  0  0  0  0  0  0  0  0  0  0
    3.8021    0.5799    5.4585 H   0  0  0  0  0  0  0  0  0  0  0  0
    4.4918   -1.0596    5.2755 H   0  0  0  0  0  0  0  0  0  0  0  0
    3.1102   -0.7757    6.3864 H   0  0  0  0  0  0  0  0  0  0  0  0
    2.6394   -2.2028    0.7231 C   0  0  0  0  0  0  0  0  0  0  0  0
    3.6617   -2.6016    0.8626 H   0  0  0  0  0  0  0  0  0  0  0  0
    2.6613   -1.4781   -0.1199 H   0  0  0  0  0  0  0  0  0  0  0  0
    1.9885   -3.0436    0.4069 H   0  0  0  0  0  0  0  0  0  0  0  0
  2  4  1  0  0  0  0
  2  1  1  0  0  0  0
  2  3  1  0  0  0  0
  4  6  1  0  0  0  0
  4  5  1  0  0  0  0
  6  1  1  0  0  0  0
  6  8  1  0  0  0  0
  7  6  1  0  0  0  0
  9  4  1  0  0  0  0
 10  2  1  0  0  0  0
  1 11  1  0  0  0  0
  1 12  1  0  0  0  0
 13 15  1  0  0  0  0
 13 16  1  0  0  0  0
 13 22  1  0  0  0  0
 14 15  1  0  0  0  0
 14 19  1  0  0  0  0
 14 42  1  0  0  0  0
 16 17  1  0  0  0  0
 16 18  1  0  0  0  0
 16 19  1  0  0  0  0
 19 20  1  0  0  0  0
 19 21  1  0  0  0  0
 22 23  1  0  0  0  0
 22 29  2  0  0  0  0
 23 24  2  0  0  0  0
 23 30  1  0  0  0  0
 24 25  1  0  0  0  0
 24 26  1  0  0  0  0
 26 27  2  0  0  0  0
 26 34  1  0  0  0  0
 27 28  1  0  0  0  0
 27 29  1  0  0  0  0
 29 38  1  0  0  0  0
 30 31  1  0  0  0  0
 30 32  1  0  0  0  0
 30 33  1  0  0  0  0
 34 35  1  0  0  0  0
 34 36  1  0  0  0  0
 34 37  1  0  0  0  0
 38 39  1  0  0  0  0
 38 40  1  0  0  0  0
 38 41  1  0  0  0  0
 42 43  1  0  0  0  0
 42 49  2  0  0  0  0
 43 44  2  0  0  0  0
 43 50  1  0  0  0  0
 44 45  1  0  0  0  0
 44 46  1  0  0  0  0
 46 47  2  0  0  0  0
 46 54  1  0  0  0  0
 47 48  1  0  0  0  0
 47 49  1  0  0  0  0
 49 58  1  0  0  0  0
 50 51  1  0  0  0  0
 50 52  1  0  0  0  0
 50 53  1  0  0  0  0
 54 55  1  0  0  0  0
 54 56  1  0  0  0  0
 54 57  1  0  0  0  0
 58 59  1  0  0  0  0
 58 60  1  0  0  0  0
 58 61  1  0  0  0  0
  1 15  1  0  0  0  0
M  END
>  <DFT-ENERGY>
-2056.90474977

$$$$
