
  CDK     02022418243D

 67 70  0  0  0  0  0  0  0  0999 V2000
   -1.5949    3.1432   -0.0422 C   0  0  0  0  0  0  0  0  0  0  0  0
   -1.9723    3.1201    0.9951 H   0  0  0  0  0  0  0  0  0  0  0  0
   -1.9595    4.0630   -0.5524 H   0  0  0  0  0  0  0  0  0  0  0  0
   -2.0346    2.2846   -0.5911 H   0  0  0  0  0  0  0  0  0  0  0  0
   -0.0857    3.1252   -0.1039 C   0  0  0  0  0  0  0  0  0  0  0  0
    0.3476    3.2252   -1.1165 H   0  0  0  0  0  0  0  0  0  0  0  0
    0.7692    3.5347    0.9551 C   0  0  0  0  0  0  0  0  0  0  0  0
    0.2993    3.6916    1.9417 H   0  0  0  0  0  0  0  0  0  0  0  0
    2.0411    4.2925    0.6485 C   0  0  0  0  0  0  0  0  0  0  0  0
    2.7393    4.3240    1.5061 H   0  0  0  0  0  0  0  0  0  0  0  0
    1.7730    5.3413    0.3964 H   0  0  0  0  0  0  0  0  0  0  0  0
    2.5569    3.8509   -0.2268 H   0  0  0  0  0  0  0  0  0  0  0  0
    1.9462    1.6752    1.6918 C   0  0  0  0  0  0  0  0  0  0  0  0
    2.9659    1.8440    1.2849 H   0  0  0  0  0  0  0  0  0  0  0  0
    1.8017    1.7802    2.7892 H   0  0  0  0  0  0  0  0  0  0  0  0
    0.5588    1.1757    0.6090 Ru  0  0  0  0  0  0  0  0  0  0  0  0
    2.0505    1.2631   -1.2830 Cl  0  0  0  0  0  0  0  0  0  0  0  0
   -0.8933    1.2349    2.5286 Cl  0  0  0  0  0  0  0  0  0  0  0  0
   -0.4872   -1.4408   -0.3379 N   0  0  0  0  0  0  0  0  0  0  0  0
    1.3504   -1.7510    0.8370 N   0  0  0  0  0  0  0  0  0  0  0  0
    0.4683   -0.8172    0.3985 C   0  0  0  0  0  0  0  0  0  0  0  0
   -0.1942   -2.8711   -0.5436 C   0  0  0  0  0  0  0  0  0  0  0  0
    0.1455   -3.0474   -1.5868 H   0  0  0  0  0  0  0  0  0  0  0  0
   -1.0973   -3.4854   -0.3615 H   0  0  0  0  0  0  0  0  0  0  0  0
    0.9241   -3.1209    0.4831 C   0  0  0  0  0  0  0  0  0  0  0  0
    0.5589   -3.6512    1.3897 H   0  0  0  0  0  0  0  0  0  0  0  0
    1.7727   -3.6958    0.0656 H   0  0  0  0  0  0  0  0  0  0  0  0
   -1.5963   -0.7510   -0.9333 C   0  0  0  0  0  0  0  0  0  0  0  0
   -2.7873   -0.6223   -0.1776 C   0  0  0  0  0  0  0  0  0  0  0  0
   -3.8555    0.0908   -0.7471 C   0  0  0  0  0  0  0  0  0  0  0  0
   -4.7816    0.2094   -0.1636 H   0  0  0  0  0  0  0  0  0  0  0  0
   -3.7723    0.6509   -2.0347 C   0  0  0  0  0  0  0  0  0  0  0  0
   -2.5976    0.4442   -2.7792 C   0  0  0  0  0  0  0  0  0  0  0  0
   -2.5300    0.8402   -3.8044 H   0  0  0  0  0  0  0  0  0  0  0  0
   -1.5004   -0.2672   -2.2606 C   0  0  0  0  0  0  0  0  0  0  0  0
   -2.9053   -1.2267    1.1939 C   0  0  0  0  0  0  0  0  0  0  0  0
   -3.9586   -1.2306    1.5316 H   0  0  0  0  0  0  0  0  0  0  0  0
   -2.3060   -0.6379    1.9214 H   0  0  0  0  0  0  0  0  0  0  0  0
   -2.5276   -2.2689    1.2185 H   0  0  0  0  0  0  0  0  0  0  0  0
   -4.9101    1.4659   -2.5950 C   0  0  0  0  0  0  0  0  0  0  0  0
   -5.8914    1.0970   -2.2374 H   0  0  0  0  0  0  0  0  0  0  0  0
   -4.9150    1.4555   -3.7022 H   0  0  0  0  0  0  0  0  0  0  0  0
   -4.8255    2.5271   -2.2761 H   0  0  0  0  0  0  0  0  0  0  0  0
   -0.2859   -0.5324   -3.1078 C   0  0  0  0  0  0  0  0  0  0  0  0
   -0.1946   -1.6139   -3.3448 H   0  0  0  0  0  0  0  0  0  0  0  0
    0.6448   -0.2113   -2.5963 H   0  0  0  0  0  0  0  0  0  0  0  0
   -0.3535    0.0116   -4.0686 H   0  0  0  0  0  0  0  0  0  0  0  0
    2.4613   -1.5102    1.7115 C   0  0  0  0  0  0  0  0  0  0  0  0
    2.2408   -1.4272    3.1045 C   0  0  0  0  0  0  0  0  0  0  0  0
    3.3512   -1.1749    3.9316 C   0  0  0  0  0  0  0  0  0  0  0  0
    3.1926   -1.1012    5.0188 H   0  0  0  0  0  0  0  0  0  0  0  0
    4.6473   -1.0237    3.4115 C   0  0  0  0  0  0  0  0  0  0  0  0
    4.8304   -1.1563    2.0225 C   0  0  0  0  0  0  0  0  0  0  0  0
    5.8425   -1.0645    1.5979 H   0  0  0  0  0  0  0  0  0  0  0  0
    3.7566   -1.4063    1.1524 C   0  0  0  0  0  0  0  0  0  0  0  0
    0.8640   -1.5820    3.6892 C   0  0  0  0  0  0  0  0  0  0  0  0
    0.3426   -2.4763    3.2911 H   0  0  0  0  0  0  0  0  0  0  0  0
    0.2268   -0.7037    3.4438 H   0  0  0  0  0  0  0  0  0  0  0  0
    0.9132   -1.6782    4.7901 H   0  0  0  0  0  0  0  0  0  0  0  0
    5.8183   -0.7229    4.3134 C   0  0  0  0  0  0  0  0  0  0  0  0
    6.1463    0.3323    4.2001 H   0  0  0  0  0  0  0  0  0  0  0  0
    6.6930   -1.3588    4.0688 H   0  0  0  0  0  0  0  0  0  0  0  0
    5.5641   -0.8803    5.3791 H   0  0  0  0  0  0  0  0  0  0  0  0
    3.9721   -1.5421   -0.3299 C   0  0  0  0  0  0  0  0  0  0  0  0
    5.0464   -1.4605   -0.5808 H   0  0  0  0  0  0  0  0  0  0  0  0
    3.4173   -0.7494   -0.8757 H   0  0  0  0  0  0  0  0  0  0  0  0
    3.6099   -2.5204   -0.7104 H   0  0  0  0  0  0  0  0  0  0  0  0
  1  2  1  0  0  0  0
  1  5  1  0  0  0  0
  1  3  1  0  0  0  0
  1  4  1  0  0  0  0
  5  6  1  0  0  0  0
  5 16  1  0  0  0  0
  5  7  1  0  0  0  0
  7  9  1  0  0  0  0
  7  8  1  0  0  0  0
  9 10  1  0  0  0  0
  9 11  1  0  0  0  0
  9 12  1  0  0  0  0
 13 14  1  0  0  0  0
 13 15  1  0  0  0  0
  7 13  1  0  0  0  0
 13 16  1  0  0  0  0
 16 17  1  0  0  0  0
 16 18  1  0  0  0  0
 19 21  1  0  0  0  0
 19 22  1  0  0  0  0
 19 28  1  0  0  0  0
 20 21  1  0  0  0  0
 20 25  1  0  0  0  0
 20 48  1  0  0  0  0
 22 23  1  0  0  0  0
 22 24  1  0  0  0  0
 22 25  1  0  0  0  0
 25 26  1  0  0  0  0
 25 27  1  0  0  0  0
 28 29  1  0  0  0  0
 28 35  2  0  0  0  0
 29 30  2  0  0  0  0
 29 36  1  0  0  0  0
 30 31  1  0  0  0  0
 30 32  1  0  0  0  0
 32 33  2  0  0  0  0
 32 40  1  0  0  0  0
 33 34  1  0  0  0  0
 33 35  1  0  0  0  0
 35 44  1  0  0  0  0
 36 37  1  0  0  0  0
 36 38  1  0  0  0  0
 36 39  1  0  0  0  0
 40 41  1  0  0  0  0
 40 42  1  0  0  0  0
 40 43  1  0  0  0  0
 44 45  1  0  0  0  0
 44 46  1  0  0  0  0
 44 47  1  0  0  0  0
 48 49  1  0  0  0  0
 48 55  2  0  0  0  0
 49 50  2  0  0  0  0
 49 56  1  0  0  0  0
 50 51  1  0  0  0  0
 50 52  1  0  0  0  0
 52 53  2  0  0  0  0
 52 60  1  0  0  0  0
 53 54  1  0  0  0  0
 53 55  1  0  0  0  0
 55 64  1  0  0  0  0
 56 57  1  0  0  0  0
 56 58  1  0  0  0  0
 56 59  1  0  0  0  0
 60 61  1  0  0  0  0
 60 62  1  0  0  0  0
 60 63  1  0  0  0  0
 64 65  1  0  0  0  0
 64 66  1  0  0  0  0
 64 67  1  0  0  0  0
 16 21  1  0  0  0  0
M  END
>  <DFT-ENERGY>
-2135.4152572

$$$$
