
  CDK     08162423113D

 67 70  0  0  0  0  0  0  0  0999 V2000
   -1.4354    3.0440   -0.6034 C   0  0  0  0  0  0  0  0  0  0  0  0
   -2.0388    3.0963    0.3199 H   0  0  0  0  0  0  0  0  0  0  0  0
   -1.6880    3.9037   -1.2642 H   0  0  0  0  0  0  0  0  0  0  0  0
   -1.7328    2.1275   -1.1551 H   0  0  0  0  0  0  0  0  0  0  0  0
    0.0503    3.0770   -0.3273 C   0  0  0  0  0  0  0  0  0  0  0  0
    0.6846    3.2040   -1.2240 H   0  0  0  0  0  0  0  0  0  0  0  0
    0.6380    3.5258    0.8871 C   0  0  0  0  0  0  0  0  0  0  0  0
   -0.0401    3.6750    1.7459 H   0  0  0  0  0  0  0  0  0  0  0  0
    1.9108    4.3422    0.8557 C   0  0  0  0  0  0  0  0  0  0  0  0
    2.4093    4.3975    1.8419 H   0  0  0  0  0  0  0  0  0  0  0  0
    1.6495    5.3800    0.5555 H   0  0  0  0  0  0  0  0  0  0  0  0
    2.6229    3.9401    0.1076 H   0  0  0  0  0  0  0  0  0  0  0  0
    1.7311    1.7272    1.8646 C   0  0  0  0  0  0  0  0  0  0  0  0
    2.8075    1.9107    1.6606 H   0  0  0  0  0  0  0  0  0  0  0  0
    1.3905    1.8832    2.9120 H   0  0  0  0  0  0  0  0  0  0  0  0
    0.5738    1.1496    0.5574 Ru  0  0  0  0  0  0  0  0  0  0  0  0
    2.6345    1.1859   -1.2175 I   0  0  0  0  0  0  0  0  0  0  0  0
   -1.4538    1.1720    2.3795 I   0  0  0  0  0  0  0  0  0  0  0  0
    1.3606   -1.7602    1.0129 N   0  0  0  0  0  0  0  0  0  0  0  0
   -0.4225   -1.5733   -0.2650 N   0  0  0  0  0  0  0  0  0  0  0  0
    0.5088   -0.8706    0.4354 C   0  0  0  0  0  0  0  0  0  0  0  0
    0.9462   -3.1612    0.7942 C   0  0  0  0  0  0  0  0  0  0  0  0
    0.5865   -3.6023    1.7484 H   0  0  0  0  0  0  0  0  0  0  0  0
    1.8022   -3.7639    0.4356 H   0  0  0  0  0  0  0  0  0  0  0  0
   -0.1703   -3.0269   -0.2544 C   0  0  0  0  0  0  0  0  0  0  0  0
    0.1453   -3.3670   -1.2642 H   0  0  0  0  0  0  0  0  0  0  0  0
   -1.0902   -3.5759    0.0237 H   0  0  0  0  0  0  0  0  0  0  0  0
    2.5498   -1.4396    1.7465 C   0  0  0  0  0  0  0  0  0  0  0  0
    2.4521   -1.1123    3.1199 C   0  0  0  0  0  0  0  0  0  0  0  0
    3.6280   -0.7395    3.7936 C   0  0  0  0  0  0  0  0  0  0  0  0
    3.5612   -0.4706    4.8595 H   0  0  0  0  0  0  0  0  0  0  0  0
    4.8794   -0.7179    3.1515 C   0  0  0  0  0  0  0  0  0  0  0  0
    4.9455   -1.1328    1.8112 C   0  0  0  0  0  0  0  0  0  0  0  0
    5.9211   -1.1615    1.3016 H   0  0  0  0  0  0  0  0  0  0  0  0
    3.7992   -1.5115    1.0905 C   0  0  0  0  0  0  0  0  0  0  0  0
    1.1412   -1.2009    3.8510 C   0  0  0  0  0  0  0  0  0  0  0  0
    1.2757   -0.9829    4.9272 H   0  0  0  0  0  0  0  0  0  0  0  0
    0.7025   -2.2173    3.7656 H   0  0  0  0  0  0  0  0  0  0  0  0
    0.3823   -0.4961    3.4491 H   0  0  0  0  0  0  0  0  0  0  0  0
    6.1154   -0.2581    3.8828 C   0  0  0  0  0  0  0  0  0  0  0  0
    7.0301   -0.7349    3.4797 H   0  0  0  0  0  0  0  0  0  0  0  0
    6.0552   -0.4804    4.9663 H   0  0  0  0  0  0  0  0  0  0  0  0
    6.2475    0.8406    3.7813 H   0  0  0  0  0  0  0  0  0  0  0  0
    3.9307   -2.0398   -0.3141 C   0  0  0  0  0  0  0  0  0  0  0  0
    4.7951   -1.5807   -0.8289 H   0  0  0  0  0  0  0  0  0  0  0  0
    3.0341   -1.8236   -0.9221 H   0  0  0  0  0  0  0  0  0  0  0  0
    4.0967   -3.1401   -0.2994 H   0  0  0  0  0  0  0  0  0  0  0  0
   -1.5460   -0.9892   -0.9400 C   0  0  0  0  0  0  0  0  0  0  0  0
   -2.8046   -0.9805   -0.2916 C   0  0  0  0  0  0  0  0  0  0  0  0
   -3.8742   -0.3377   -0.9356 C   0  0  0  0  0  0  0  0  0  0  0  0
   -4.8487   -0.2969   -0.4248 H   0  0  0  0  0  0  0  0  0  0  0  0
   -3.7350    0.2479   -2.2062 C   0  0  0  0  0  0  0  0  0  0  0  0
   -2.4969    0.1299   -2.8613 C   0  0  0  0  0  0  0  0  0  0  0  0
   -2.3843    0.5278   -3.8819 H   0  0  0  0  0  0  0  0  0  0  0  0
   -1.3904   -0.4960   -2.2582 C   0  0  0  0  0  0  0  0  0  0  0  0
   -3.0280   -1.7016    1.0114 C   0  0  0  0  0  0  0  0  0  0  0  0
   -2.1244   -1.6980    1.6466 H   0  0  0  0  0  0  0  0  0  0  0  0
   -3.3251   -2.7565    0.8176 H   0  0  0  0  0  0  0  0  0  0  0  0
   -3.8408   -1.2272    1.5915 H   0  0  0  0  0  0  0  0  0  0  0  0
   -4.8826    0.9869   -2.8458 C   0  0  0  0  0  0  0  0  0  0  0  0
   -4.8008    0.9926   -3.9501 H   0  0  0  0  0  0  0  0  0  0  0  0
   -4.9001    2.0464   -2.5112 H   0  0  0  0  0  0  0  0  0  0  0  0
   -5.8594    0.5434   -2.5698 H   0  0  0  0  0  0  0  0  0  0  0  0
   -0.1036   -0.6637   -3.0177 C   0  0  0  0  0  0  0  0  0  0  0  0
    0.6983    0.0056   -2.6380 H   0  0  0  0  0  0  0  0  0  0  0  0
   -0.2539   -0.4434   -4.0913 H   0  0  0  0  0  0  0  0  0  0  0  0
    0.2893   -1.6970   -2.9307 H   0  0  0  0  0  0  0  0  0  0  0  0
  1  2  1  0  0  0  0
  1  5  1  0  0  0  0
  1  3  1  0  0  0  0
  1  4  1  0  0  0  0
  5  6  1  0  0  0  0
  5 16  1  0  0  0  0
  5  7  1  0  0  0  0
  7  9  1  0  0  0  0
  7  8  1  0  0  0  0
  9 10  1  0  0  0  0
  9 11  1  0  0  0  0
  9 12  1  0  0  0  0
 13 14  1  0  0  0  0
 13 15  1  0  0  0  0
  7 13  1  0  0  0  0
 13 16  1  0  0  0  0
 16 17  1  0  0  0  0
 16 18  1  0  0  0  0
 19 21  1  0  0  0  0
 20 21  1  0  0  0  0
 19 22  1  0  0  0  0
 22 23  1  0  0  0  0
 22 24  1  0  0  0  0
 20 25  1  0  0  0  0
 25 26  1  0  0  0  0
 25 27  1  0  0  0  0
 22 25  1  0  0  0  0
 28 29  2  0  0  0  0
 29 30  1  0  0  0  0
 30 31  1  0  0  0  0
 30 32  2  0  0  0  0
 32 33  1  0  0  0  0
 33 34  1  0  0  0  0
 28 35  1  0  0  0  0
 33 35  2  0  0  0  0
 19 28  1  0  0  0  0
 36 37  1  0  0  0  0
 36 38  1  0  0  0  0
 36 39  1  0  0  0  0
 29 36  1  0  0  0  0
 40 41  1  0  0  0  0
 40 42  1  0  0  0  0
 40 43  1  0  0  0  0
 32 40  1  0  0  0  0
 44 45  1  0  0  0  0
 44 46  1  0  0  0  0
 44 47  1  0  0  0  0
 35 44  1  0  0  0  0
 48 49  2  0  0  0  0
 49 50  1  0  0  0  0
 50 51  1  0  0  0  0
 50 52  2  0  0  0  0
 52 53  1  0  0  0  0
 53 54  1  0  0  0  0
 48 55  1  0  0  0  0
 53 55  2  0  0  0  0
 20 48  1  0  0  0  0
 56 57  1  0  0  0  0
 56 58  1  0  0  0  0
 56 59  1  0  0  0  0
 49 56  1  0  0  0  0
 60 61  1  0  0  0  0
 60 62  1  0  0  0  0
 60 63  1  0  0  0  0
 52 60  1  0  0  0  0
 64 65  1  0  0  0  0
 64 66  1  0  0  0  0
 64 67  1  0  0  0  0
 55 64  1  0  0  0  0
 16 21  1  0  0  0  0
M  END
>  <DFT-ENERGY>
-1806.77985875

$$$$
