
  CDK     08132416083D

 64 66  0  0  0  0  0  0  0  0999 V2000
    2.0558    0.5692   -1.3388 Ru  0  0  0  0  0  0  0  0  0  0  0  0
    3.5214    0.6616   -2.6603 C   0  0  0  0  0  0  0  0  0  0  0  0
    3.1936    0.8757   -3.6923 H   0  0  0  0  0  0  0  0  0  0  0  0
    3.7972    1.9595   -1.8130 C   0  0  0  0  0  0  0  0  0  0  0  0
    3.7076    2.8164   -2.5048 H   0  0  0  0  0  0  0  0  0  0  0  0
    2.7950    2.2422   -0.6186 C   0  0  0  0  0  0  0  0  0  0  0  0
    3.2719    2.1578    0.3739 H   0  0  0  0  0  0  0  0  0  0  0  0
    2.1771    3.1427   -0.7816 H   0  0  0  0  0  0  0  0  0  0  0  0
    4.7982    1.8381   -1.3608 H   0  0  0  0  0  0  0  0  0  0  0  0
    4.3012   -0.1110   -2.5419 H   0  0  0  0  0  0  0  0  0  0  0  0
    0.7487    1.8309   -2.9071 Cl  0  0  0  0  0  0  0  0  0  0  0  0
    3.5598   -0.6740    0.0313 Cl  0  0  0  0  0  0  0  0  0  0  0  0
    0.5483   -0.6141   -1.0678 C   0  0  0  0  0  0  0  0  0  0  0  0
    0.4680   -1.8620   -1.9611 C   0  0  0  0  0  0  0  0  0  0  0  0
   -0.5222   -0.5410   -0.2741 N   0  0  0  0  0  0  0  0  0  0  0  0
   -0.7332    0.3548    0.8560 C   0  0  0  0  0  0  0  0  0  0  0  0
   -1.5709    1.7756    3.1334 C   0  0  0  0  0  0  0  0  0  0  0  0
   -1.5489    1.5127    0.6984 C   0  0  0  0  0  0  0  0  0  0  0  0
   -0.2367   -0.0223    2.1384 C   0  0  0  0  0  0  0  0  0  0  0  0
   -0.6914    0.6993    3.2593 C   0  0  0  0  0  0  0  0  0  0  0  0
   -1.9601    2.1943    1.8598 C   0  0  0  0  0  0  0  0  0  0  0  0
   -0.3293    0.4093    4.2557 H   0  0  0  0  0  0  0  0  0  0  0  0
   -2.5967    3.0837    1.7522 H   0  0  0  0  0  0  0  0  0  0  0  0
   -1.9244    2.3112    4.0265 H   0  0  0  0  0  0  0  0  0  0  0  0
   -1.5717   -1.6197   -0.5628 C   0  0  0  0  0  0  0  0  0  0  0  0
   -1.0396   -2.1954   -1.8878 C   0  0  0  0  0  0  0  0  0  0  0  0
   -1.5581   -1.7001   -2.7323 H   0  0  0  0  0  0  0  0  0  0  0  0
   -1.2230   -3.2842   -1.9647 H   0  0  0  0  0  0  0  0  0  0  0  0
   -2.9586   -1.0058   -0.7444 C   0  0  0  0  0  0  0  0  0  0  0  0
   -2.9692   -0.2698   -1.5678 H   0  0  0  0  0  0  0  0  0  0  0  0
   -3.3156   -0.5175    0.1825 H   0  0  0  0  0  0  0  0  0  0  0  0
   -3.6701   -1.8168   -0.9983 H   0  0  0  0  0  0  0  0  0  0  0  0
   -1.6271   -2.6417    0.5762 C   0  0  0  0  0  0  0  0  0  0  0  0
   -0.6555   -3.1372    0.7471 H   0  0  0  0  0  0  0  0  0  0  0  0
   -2.3732   -3.4213    0.3252 H   0  0  0  0  0  0  0  0  0  0  0  0
   -1.9471   -2.1574    1.5185 H   0  0  0  0  0  0  0  0  0  0  0  0
    0.9145   -1.6256   -3.4130 C   0  0  0  0  0  0  0  0  0  0  0  0
    0.6734   -2.5252   -4.0152 H   0  0  0  0  0  0  0  0  0  0  0  0
    2.0086   -1.4656   -3.4739 H   0  0  0  0  0  0  0  0  0  0  0  0
    0.4164   -0.7410   -3.8519 H   0  0  0  0  0  0  0  0  0  0  0  0
    1.3415   -2.9756   -1.3395 C   0  0  0  0  0  0  0  0  0  0  0  0
    2.4066   -2.6772   -1.3221 H   0  0  0  0  0  0  0  0  0  0  0  0
    1.2258   -3.8980   -1.9444 H   0  0  0  0  0  0  0  0  0  0  0  0
    1.0543   -3.2068   -0.2966 H   0  0  0  0  0  0  0  0  0  0  0  0
   -1.9055    2.1419   -0.6437 C   0  0  0  0  0  0  0  0  0  0  0  0
   -1.5352    1.4856   -1.4552 H   0  0  0  0  0  0  0  0  0  0  0  0
    0.8404   -1.0752    2.3819 C   0  0  0  0  0  0  0  0  0  0  0  0
    1.1317   -1.5212    1.4110 H   0  0  0  0  0  0  0  0  0  0  0  0
    2.0914   -0.3781    2.9549 C   0  0  0  0  0  0  0  0  0  0  0  0
    2.4182    0.4566    2.3092 H   0  0  0  0  0  0  0  0  0  0  0  0
    2.9332   -1.0949    3.0149 H   0  0  0  0  0  0  0  0  0  0  0  0
    1.8913    0.0135    3.9739 H   0  0  0  0  0  0  0  0  0  0  0  0
    0.4058   -2.1926    3.3466 C   0  0  0  0  0  0  0  0  0  0  0  0
    1.2281   -2.9267    3.4656 H   0  0  0  0  0  0  0  0  0  0  0  0
   -0.4922   -2.7382    3.0031 H   0  0  0  0  0  0  0  0  0  0  0  0
    0.1834   -1.7856    4.3546 H   0  0  0  0  0  0  0  0  0  0  0  0
   -1.1528    3.4823   -0.7699 C   0  0  0  0  0  0  0  0  0  0  0  0
   -0.0673    3.3448   -0.6188 H   0  0  0  0  0  0  0  0  0  0  0  0
   -1.5261    4.2147   -0.0240 H   0  0  0  0  0  0  0  0  0  0  0  0
   -1.2943    3.9071   -1.7828 H   0  0  0  0  0  0  0  0  0  0  0  0
   -3.4120    2.3931   -0.8302 C   0  0  0  0  0  0  0  0  0  0  0  0
   -3.7891    3.1429   -0.1045 H   0  0  0  0  0  0  0  0  0  0  0  0
   -4.0219    1.4784   -0.7086 H   0  0  0  0  0  0  0  0  0  0  0  0
   -3.6015    2.7996   -1.8441 H   0  0  0  0  0  0  0  0  0  0  0  0
  2  4  1  0  0  0  0
  2  1  1  0  0  0  0
  2  3  1  0  0  0  0
  4  6  1  0  0  0  0
  4  5  1  0  0  0  0
  6  1  1  0  0  0  0
  6  8  1  0  0  0  0
  7  6  1  0  0  0  0
  9  4  1  0  0  0  0
 10  2  1  0  0  0  0
  1 11  1  0  0  0  0
  1 12  1  0  0  0  0
 13 14  1  0  0  0  0
 13 15  1  0  0  0  0
 16 19  2  0  0  0  0
 19 20  1  0  0  0  0
 17 20  2  0  0  0  0
 17 21  1  0  0  0  0
 18 21  2  0  0  0  0
 16 18  1  0  0  0  0
 20 22  1  0  0  0  0
 21 23  1  0  0  0  0
 17 24  1  0  0  0  0
 15 16  1  0  0  0  0
 15 25  1  0  0  0  0
 14 26  1  0  0  0  0
 25 26  1  0  0  0  0
 26 27  1  0  0  0  0
 26 28  1  0  0  0  0
 29 30  1  0  0  0  0
 29 31  1  0  0  0  0
 29 32  1  0  0  0  0
 25 29  1  0  0  0  0
 33 34  1  0  0  0  0
 33 35  1  0  0  0  0
 33 36  1  0  0  0  0
 25 33  1  0  0  0  0
 37 38  1  0  0  0  0
 37 39  1  0  0  0  0
 37 40  1  0  0  0  0
 14 37  1  0  0  0  0
 41 42  1  0  0  0  0
 41 43  1  0  0  0  0
 41 44  1  0  0  0  0
 14 41  1  0  0  0  0
 45 46  1  0  0  0  0
 18 45  1  0  0  0  0
 47 48  1  0  0  0  0
 19 47  1  0  0  0  0
 49 50  1  0  0  0  0
 49 51  1  0  0  0  0
 49 52  1  0  0  0  0
 47 49  1  0  0  0  0
 53 54  1  0  0  0  0
 53 55  1  0  0  0  0
 53 56  1  0  0  0  0
 47 53  1  0  0  0  0
 57 58  1  0  0  0  0
 57 59  1  0  0  0  0
 57 60  1  0  0  0  0
 45 57  1  0  0  0  0
 61 62  1  0  0  0  0
 61 63  1  0  0  0  0
 61 64  1  0  0  0  0
 45 61  1  0  0  0  0
  1 13  1  0  0  0  0
M  END
>  <DFT-ENERGY>
-1967.09670514

$$$$
