
  CDK     08132403363D

 70 72  0  0  0  0  0  0  0  0999 V2000
   -1.5250    4.0461   -2.8115 C   0  0  0  0  0  0  0  0  0  0  0  0
   -0.4759    4.2208   -3.1067 H   0  0  0  0  0  0  0  0  0  0  0  0
   -2.1364    4.9418   -3.0618 H   0  0  0  0  0  0  0  0  0  0  0  0
   -1.9174    3.2106   -3.4252 H   0  0  0  0  0  0  0  0  0  0  0  0
   -1.6622    3.7748   -1.3316 C   0  0  0  0  0  0  0  0  0  0  0  0
   -2.6937    3.6051   -0.9698 H   0  0  0  0  0  0  0  0  0  0  0  0
   -0.7842    4.3348   -0.3641 C   0  0  0  0  0  0  0  0  0  0  0  0
    0.1620    4.7494   -0.7547 H   0  0  0  0  0  0  0  0  0  0  0  0
   -1.3146    4.8900    0.9358 C   0  0  0  0  0  0  0  0  0  0  0  0
   -0.5152    5.0807    1.6761 H   0  0  0  0  0  0  0  0  0  0  0  0
   -1.8141    5.8601    0.7234 H   0  0  0  0  0  0  0  0  0  0  0  0
   -2.0676    4.2047    1.3728 H   0  0  0  0  0  0  0  0  0  0  0  0
    0.3955    2.6117    0.6482 C   0  0  0  0  0  0  0  0  0  0  0  0
    0.0278    2.6789    1.6936 H   0  0  0  0  0  0  0  0  0  0  0  0
    1.4325    2.9606    0.4511 H   0  0  0  0  0  0  0  0  0  0  0  0
   -0.6503    1.9111   -0.6879 Ru  0  0  0  0  0  0  0  0  0  0  0  0
   -2.5589    1.6370    0.7619 Cl  0  0  0  0  0  0  0  0  0  0  0  0
    1.1187    2.3191   -2.2500 Cl  0  0  0  0  0  0  0  0  0  0  0  0
   -0.5920   -0.0233   -0.8665 C   0  0  0  0  0  0  0  0  0  0  0  0
   -1.3776   -0.5953   -2.0580 C   0  0  0  0  0  0  0  0  0  0  0  0
   -0.1022   -1.0266   -0.1285 N   0  0  0  0  0  0  0  0  0  0  0  0
    0.8653   -0.9222    0.9530 C   0  0  0  0  0  0  0  0  0  0  0  0
    2.7726   -1.1415    3.0113 C   0  0  0  0  0  0  0  0  0  0  0  0
    0.4304   -0.9789    2.3094 C   0  0  0  0  0  0  0  0  0  0  0  0
    2.2542   -0.8684    0.6327 C   0  0  0  0  0  0  0  0  0  0  0  0
    3.1816   -0.9985    1.6846 C   0  0  0  0  0  0  0  0  0  0  0  0
    1.4106   -1.0994    3.3136 C   0  0  0  0  0  0  0  0  0  0  0  0
    4.2549   -0.9744    1.4485 H   0  0  0  0  0  0  0  0  0  0  0  0
    1.0872   -1.1533    4.3627 H   0  0  0  0  0  0  0  0  0  0  0  0
    3.5167   -1.2556    3.8130 H   0  0  0  0  0  0  0  0  0  0  0  0
   -0.5468   -2.4136   -0.6020 C   0  0  0  0  0  0  0  0  0  0  0  0
   -1.6616   -2.0394   -1.5970 C   0  0  0  0  0  0  0  0  0  0  0  0
   -2.6377   -2.0674   -1.0732 H   0  0  0  0  0  0  0  0  0  0  0  0
   -1.7075   -2.7487   -2.4456 H   0  0  0  0  0  0  0  0  0  0  0  0
   -1.0982   -3.2522    0.5495 C   0  0  0  0  0  0  0  0  0  0  0  0
   -1.9592   -2.7592    1.0343 H   0  0  0  0  0  0  0  0  0  0  0  0
   -0.3226   -3.4599    1.3111 H   0  0  0  0  0  0  0  0  0  0  0  0
   -1.4430   -4.2235    0.1418 H   0  0  0  0  0  0  0  0  0  0  0  0
    0.6208   -3.1739   -1.2398 C   0  0  0  0  0  0  0  0  0  0  0  0
    1.0670   -2.6317   -2.0913 H   0  0  0  0  0  0  0  0  0  0  0  0
    0.2575   -4.1543   -1.6063 H   0  0  0  0  0  0  0  0  0  0  0  0
    1.4125   -3.3651   -0.4904 H   0  0  0  0  0  0  0  0  0  0  0  0
   -2.6701    0.1874   -2.3414 C   0  0  0  0  0  0  0  0  0  0  0  0
   -3.2161   -0.2860   -3.1827 H   0  0  0  0  0  0  0  0  0  0  0  0
   -2.4448    1.2303   -2.6526 H   0  0  0  0  0  0  0  0  0  0  0  0
   -3.3232    0.2371   -1.4510 H   0  0  0  0  0  0  0  0  0  0  0  0
   -0.4848   -0.5528   -3.3194 C   0  0  0  0  0  0  0  0  0  0  0  0
   -0.2267    0.4892   -3.5864 H   0  0  0  0  0  0  0  0  0  0  0  0
   -1.0311   -1.0270   -4.1604 H   0  0  0  0  0  0  0  0  0  0  0  0
    0.4698   -1.0934   -3.1798 H   0  0  0  0  0  0  0  0  0  0  0  0
   -1.0164   -0.8241    2.7699 C   0  0  0  0  0  0  0  0  0  0  0  0
   -1.6646   -0.7378    1.8762 H   0  0  0  0  0  0  0  0  0  0  0  0
    2.8204   -0.5892   -0.7572 C   0  0  0  0  0  0  0  0  0  0  0  0
    1.9795   -0.4482   -1.4633 H   0  0  0  0  0  0  0  0  0  0  0  0
    3.6151    0.7311   -0.7309 C   0  0  0  0  0  0  0  0  0  0  0  0
    3.0012    1.5634   -0.3448 H   0  0  0  0  0  0  0  0  0  0  0  0
    3.9278    1.0069   -1.7569 H   0  0  0  0  0  0  0  0  0  0  0  0
    4.5253    0.6331   -0.1035 H   0  0  0  0  0  0  0  0  0  0  0  0
    3.7419   -1.7090   -1.2748 C   0  0  0  0  0  0  0  0  0  0  0  0
    4.0952   -1.4640   -2.2970 H   0  0  0  0  0  0  0  0  0  0  0  0
    3.2480   -2.6971   -1.3111 H   0  0  0  0  0  0  0  0  0  0  0  0
    4.6419   -1.8101   -0.6336 H   0  0  0  0  0  0  0  0  0  0  0  0
   -1.1664    0.4893    3.5628 C   0  0  0  0  0  0  0  0  0  0  0  0
   -0.8400    1.3583    2.9658 H   0  0  0  0  0  0  0  0  0  0  0  0
   -0.5762    0.4556    4.5022 H   0  0  0  0  0  0  0  0  0  0  0  0
   -2.2300    0.6553    3.8252 H   0  0  0  0  0  0  0  0  0  0  0  0
   -1.5005   -1.9867    3.6568 C   0  0  0  0  0  0  0  0  0  0  0  0
   -0.9533   -2.0075    4.6218 H   0  0  0  0  0  0  0  0  0  0  0  0
   -1.3734   -2.9778    3.1838 H   0  0  0  0  0  0  0  0  0  0  0  0
   -2.5752   -1.8551    3.8961 H   0  0  0  0  0  0  0  0  0  0  0  0
  1  2  1  0  0  0  0
  1  5  1  0  0  0  0
  3  1  1  0  0  0  0
  4  1  1  0  0  0  0
  5  6  1  0  0  0  0
  5 16  1  0  0  0  0
  5  7  1  0  0  0  0
  7  9  1  0  0  0  0
  7  8  1  0  0  0  0
  9 10  1  0  0  0  0
 11  9  1  0  0  0  0
 12  9  1  0  0  0  0
 13 14  1  0  0  0  0
 13 15  1  0  0  0  0
 13  7  1  0  0  0  0
 16 13  1  0  0  0  0
 16 17  1  0  0  0  0
 16 18  1  0  0  0  0
 19 20  1  0  0  0  0
 19 21  1  0  0  0  0
 22 25  2  0  0  0  0
 25 26  1  0  0  0  0
 23 26  2  0  0  0  0
 23 27  1  0  0  0  0
 24 27  2  0  0  0  0
 22 24  1  0  0  0  0
 26 28  1  0  0  0  0
 27 29  1  0  0  0  0
 23 30  1  0  0  0  0
 21 22  1  0  0  0  0
 21 31  1  0  0  0  0
 20 32  1  0  0  0  0
 31 32  1  0  0  0  0
 32 33  1  0  0  0  0
 32 34  1  0  0  0  0
 35 36  1  0  0  0  0
 35 37  1  0  0  0  0
 35 38  1  0  0  0  0
 31 35  1  0  0  0  0
 39 40  1  0  0  0  0
 39 41  1  0  0  0  0
 39 42  1  0  0  0  0
 31 39  1  0  0  0  0
 43 44  1  0  0  0  0
 43 45  1  0  0  0  0
 43 46  1  0  0  0  0
 20 43  1  0  0  0  0
 47 48  1  0  0  0  0
 47 49  1  0  0  0  0
 47 50  1  0  0  0  0
 20 47  1  0  0  0  0
 51 52  1  0  0  0  0
 24 51  1  0  0  0  0
 53 54  1  0  0  0  0
 25 53  1  0  0  0  0
 55 56  1  0  0  0  0
 55 57  1  0  0  0  0
 55 58  1  0  0  0  0
 53 55  1  0  0  0  0
 59 60  1  0  0  0  0
 59 61  1  0  0  0  0
 59 62  1  0  0  0  0
 53 59  1  0  0  0  0
 63 64  1  0  0  0  0
 63 65  1  0  0  0  0
 63 66  1  0  0  0  0
 51 63  1  0  0  0  0
 67 68  1  0  0  0  0
 67 69  1  0  0  0  0
 67 70  1  0  0  0  0
 51 67  1  0  0  0  0
 16 19  1  0  0  0  0
M  END
>  <DFT-ENERGY>
-2045.60300566

$$$$
