
  CDK     07312402143D

 67 71  0  0  0  0  0  0  0  0999 V2000
    3.0294   -2.3837   -0.8746 H   0  0  0  0  0  0  0  0  0  0  0  0
    2.3270   -2.1384   -1.8547 C   0  0  0  0  0  0  0  0  0  0  0  0
    2.3975   -3.1811   -2.2397 H   0  0  0  0  0  0  0  0  0  0  0  0
    1.1041   -1.5177   -1.2782 C   0  0  0  0  0  0  0  0  0  0  0  0
    0.5610   -0.8078   -1.9240 H   0  0  0  0  0  0  0  0  0  0  0  0
    0.4525   -2.1425   -0.6474 H   0  0  0  0  0  0  0  0  0  0  0  0
    2.7843   -0.7268   -0.2905 Ru  0  0  0  0  0  0  0  0  0  0  0  0
    3.0740   -1.0087   -2.4104 C   0  0  0  0  0  0  0  0  0  0  0  0
    2.5055   -0.2545   -2.9742 H   0  0  0  0  0  0  0  0  0  0  0  0
    4.1308   -1.1237   -2.7011 H   0  0  0  0  0  0  0  0  0  0  0  0
    4.0771    1.1801   -0.9010 Cl  0  0  0  0  0  0  0  0  0  0  0  0
    2.2346   -2.2074    1.4891 Cl  0  0  0  0  0  0  0  0  0  0  0  0
    2.1254    0.6827    1.0291 C   0  0  0  0  0  0  0  0  0  0  0  0
    0.9669    1.3853    0.9516 N   0  0  0  0  0  0  0  0  0  0  0  0
    0.7929    2.3000    2.0976 C   0  0  0  0  0  0  0  0  0  0  0  0
    2.1469    2.1930    2.8244 C   0  0  0  0  0  0  0  0  0  0  0  0
    2.7967    1.0714    2.1316 N   0  0  0  0  0  0  0  0  0  0  0  0
    0.5727    3.3259    1.7435 H   0  0  0  0  0  0  0  0  0  0  0  0
   -0.0547    1.9624    2.7285 H   0  0  0  0  0  0  0  0  0  0  0  0
    2.0368    1.9857    3.9071 H   0  0  0  0  0  0  0  0  0  0  0  0
    2.7569    3.1137    2.7090 H   0  0  0  0  0  0  0  0  0  0  0  0
   -0.0926    1.1486    0.0139 C   0  0  0  0  0  0  0  0  0  0  0  0
   -2.1566    0.7050   -1.8105 C   0  0  0  0  0  0  0  0  0  0  0  0
   -1.1242    0.2374    0.3549 C   0  0  0  0  0  0  0  0  0  0  0  0
   -0.0907    1.8634   -1.2091 C   0  0  0  0  0  0  0  0  0  0  0  0
   -1.1372    1.6146   -2.1163 C   0  0  0  0  0  0  0  0  0  0  0  0
   -2.1524    0.0325   -0.5833 C   0  0  0  0  0  0  0  0  0  0  0  0
   -1.1550    2.1489   -3.0768 H   0  0  0  0  0  0  0  0  0  0  0  0
   -2.9622   -0.6729   -0.3478 H   0  0  0  0  0  0  0  0  0  0  0  0
   -2.9657    0.5233   -2.5332 H   0  0  0  0  0  0  0  0  0  0  0  0
    0.9688    2.9100   -1.5202 C   0  0  0  0  0  0  0  0  0  0  0  0
    1.8192    2.7401   -0.8319 H   0  0  0  0  0  0  0  0  0  0  0  0
   -1.1738   -0.4661    1.7064 C   0  0  0  0  0  0  0  0  0  0  0  0
   -0.1796   -0.3548    2.1836 H   0  0  0  0  0  0  0  0  0  0  0  0
    0.4035    4.3200   -1.2630 C   0  0  0  0  0  0  0  0  0  0  0  0
    0.0268    4.4298   -0.2256 H   0  0  0  0  0  0  0  0  0  0  0  0
   -0.4445    4.5391   -1.9455 H   0  0  0  0  0  0  0  0  0  0  0  0
    1.1835    5.0910   -1.4298 H   0  0  0  0  0  0  0  0  0  0  0  0
    1.5217    2.7980   -2.9470 C   0  0  0  0  0  0  0  0  0  0  0  0
    1.9306    1.7872   -3.1354 H   0  0  0  0  0  0  0  0  0  0  0  0
    2.3491    3.5211   -3.0903 H   0  0  0  0  0  0  0  0  0  0  0  0
    0.7504    3.0165   -3.7147 H   0  0  0  0  0  0  0  0  0  0  0  0
   -2.2387    0.2006    2.6010 C   0  0  0  0  0  0  0  0  0  0  0  0
   -2.2293   -0.2410    3.6185 H   0  0  0  0  0  0  0  0  0  0  0  0
   -3.2538    0.0535    2.1767 H   0  0  0  0  0  0  0  0  0  0  0  0
   -2.0817    1.2944    2.6952 H   0  0  0  0  0  0  0  0  0  0  0  0
   -1.4434   -1.9745    1.6011 C   0  0  0  0  0  0  0  0  0  0  0  0
   -1.4733   -2.4209    2.6154 H   0  0  0  0  0  0  0  0  0  0  0  0
   -0.6391   -2.4876    1.0420 H   0  0  0  0  0  0  0  0  0  0  0  0
   -2.4173   -2.1902    1.1155 H   0  0  0  0  0  0  0  0  0  0  0  0
    4.1101    0.5580    2.5215 C   0  0  0  0  0  0  0  0  0  0  0  0
    6.5606    1.0318    2.8390 C   0  0  0  0  0  0  0  0  0  0  0  0
    5.4258   -0.7765    4.2041 C   0  0  0  0  0  0  0  0  0  0  0  0
    6.5334    0.2854    4.1796 C   0  0  0  0  0  0  0  0  0  0  0  0
    4.0553   -0.1718    3.8719 C   0  0  0  0  0  0  0  0  0  0  0  0
    5.1935    1.6454    2.5079 C   0  0  0  0  0  0  0  0  0  0  0  0
    6.8406    0.3237    2.0273 H   0  0  0  0  0  0  0  0  0  0  0  0
    5.6555   -1.5679    3.4561 H   0  0  0  0  0  0  0  0  0  0  0  0
    6.3573    1.0170    5.0012 H   0  0  0  0  0  0  0  0  0  0  0  0
    3.7665    0.5490    4.6708 H   0  0  0  0  0  0  0  0  0  0  0  0
    4.9495    2.4239    3.2660 H   0  0  0  0  0  0  0  0  0  0  0  0
    4.3609   -0.1931    1.7402 H   0  0  0  0  0  0  0  0  0  0  0  0
    7.3389    1.8225    2.8471 H   0  0  0  0  0  0  0  0  0  0  0  0
    5.3889   -1.2806    5.1918 H   0  0  0  0  0  0  0  0  0  0  0  0
    7.5201   -0.1811    4.3816 H   0  0  0  0  0  0  0  0  0  0  0  0
    3.2749   -0.9563    3.8235 H   0  0  0  0  0  0  0  0  0  0  0  0
    5.2034    2.1320    1.5124 H   0  0  0  0  0  0  0  0  0  0  0  0
  1  2  1  0  0  0  0
  1  7  1  0  0  0  0
  2  3  1  0  0  0  0
  2  4  1  0  0  0  0
  4  5  1  0  0  0  0
  4  6  1  0  0  0  0
  7  8  1  0  0  0  0
  4  7  1  0  0  0  0
  2  8  1  0  0  0  0
  8  9  1  0  0  0  0
  8 10  1  0  0  0  0
  7 11  1  0  0  0  0
  7 12  1  0  0  0  0
 13 14  1  0  0  0  0
 13 17  1  0  0  0  0
 14 15  1  0  0  0  0
 15 18  1  0  0  0  0
 15 19  1  0  0  0  0
 15 16  1  0  0  0  0
 16 20  1  0  0  0  0
 16 21  1  0  0  0  0
 16 17  1  0  0  0  0
 22 25  2  0  0  0  0
 25 26  1  0  0  0  0
 23 26  2  0  0  0  0
 23 27  1  0  0  0  0
 24 27  2  0  0  0  0
 22 24  1  0  0  0  0
 26 28  1  0  0  0  0
 27 29  1  0  0  0  0
 14 22  1  0  0  0  0
 23 30  1  0  0  0  0
 31 32  1  0  0  0  0
 25 31  1  0  0  0  0
 33 34  1  0  0  0  0
 24 33  1  0  0  0  0
 35 36  1  0  0  0  0
 35 37  1  0  0  0  0
 35 38  1  0  0  0  0
 31 35  1  0  0  0  0
 39 40  1  0  0  0  0
 39 41  1  0  0  0  0
 39 42  1  0  0  0  0
 31 39  1  0  0  0  0
 43 44  1  0  0  0  0
 43 45  1  0  0  0  0
 43 46  1  0  0  0  0
 33 43  1  0  0  0  0
 47 48  1  0  0  0  0
 47 49  1  0  0  0  0
 47 50  1  0  0  0  0
 33 47  1  0  0  0  0
 51 62  1  0  0  0  0
 51 55  1  0  0  0  0
 51 56  1  0  0  0  0
 52 57  1  0  0  0  0
 52 63  1  0  0  0  0
 52 54  1  0  0  0  0
 52 56  1  0  0  0  0
 53 58  1  0  0  0  0
 53 64  1  0  0  0  0
 53 55  1  0  0  0  0
 53 54  1  0  0  0  0
 54 59  1  0  0  0  0
 54 65  1  0  0  0  0
 55 60  1  0  0  0  0
 55 66  1  0  0  0  0
 56 61  1  0  0  0  0
 56 67  1  0  0  0  0
 17 51  1  0  0  0  0
  7 13  1  0  0  0  0
M  END
>  <DFT-ENERGY>
-2060.44443851

$$$$
