
  CDK     07302420283D

 73 76  0  0  0  0  0  0  0  0999 V2000
   -3.7738    0.1522   -1.8723 C   0  0  0  0  0  0  0  0  0  0  0  0
   -3.6504    1.2163   -2.1411 H   0  0  0  0  0  0  0  0  0  0  0  0
   -4.7808   -0.1980   -2.1924 H   0  0  0  0  0  0  0  0  0  0  0  0
   -3.0345   -0.4371   -2.4516 H   0  0  0  0  0  0  0  0  0  0  0  0
   -3.6310   -0.0773   -0.3850 C   0  0  0  0  0  0  0  0  0  0  0  0
   -3.6996   -1.1304   -0.0522 H   0  0  0  0  0  0  0  0  0  0  0  0
   -4.0444    0.8766    0.5821 C   0  0  0  0  0  0  0  0  0  0  0  0
   -4.2449    1.8966    0.2088 H   0  0  0  0  0  0  0  0  0  0  0  0
   -4.7583    0.4325    1.8384 C   0  0  0  0  0  0  0  0  0  0  0  0
   -4.8110    1.2272    2.6061 H   0  0  0  0  0  0  0  0  0  0  0  0
   -5.8007    0.1558    1.5699 H   0  0  0  0  0  0  0  0  0  0  0  0
   -4.2656   -0.4617    2.2689 H   0  0  0  0  0  0  0  0  0  0  0  0
   -2.1899    1.6356    1.7529 C   0  0  0  0  0  0  0  0  0  0  0  0
   -2.3661    1.2263    2.7714 H   0  0  0  0  0  0  0  0  0  0  0  0
   -2.3090    2.7342    1.6213 H   0  0  0  0  0  0  0  0  0  0  0  0
   -1.6635    0.5617    0.3670 Ru  0  0  0  0  0  0  0  0  0  0  0  0
   -1.7359   -1.4452    1.6902 Cl  0  0  0  0  0  0  0  0  0  0  0  0
   -1.5625    2.4396   -1.1236 Cl  0  0  0  0  0  0  0  0  0  0  0  0
    0.3174    0.4413    0.3453 C   0  0  0  0  0  0  0  0  0  0  0  0
    1.2338    0.8936    1.2397 N   0  0  0  0  0  0  0  0  0  0  0  0
    2.6063    0.6558    0.7426 C   0  0  0  0  0  0  0  0  0  0  0  0
    2.3793   -0.4163   -0.3336 C   0  0  0  0  0  0  0  0  0  0  0  0
    0.9622   -0.2010   -0.6577 N   0  0  0  0  0  0  0  0  0  0  0  0
    3.0193    1.5920    0.3090 H   0  0  0  0  0  0  0  0  0  0  0  0
    3.2694    0.3204    1.5606 H   0  0  0  0  0  0  0  0  0  0  0  0
    2.5373   -1.4439    0.0639 H   0  0  0  0  0  0  0  0  0  0  0  0
    3.0273   -0.2751   -1.2190 H   0  0  0  0  0  0  0  0  0  0  0  0
    0.9509    1.6958    2.3971 C   0  0  0  0  0  0  0  0  0  0  0  0
    0.4214    3.2297    4.6697 C   0  0  0  0  0  0  0  0  0  0  0  0
    0.8038    1.0426    3.6487 C   0  0  0  0  0  0  0  0  0  0  0  0
    0.8470    3.1051    2.2656 C   0  0  0  0  0  0  0  0  0  0  0  0
    0.5780    3.8530    3.4273 C   0  0  0  0  0  0  0  0  0  0  0  0
    0.5361    1.8393    4.7768 C   0  0  0  0  0  0  0  0  0  0  0  0
    0.4894    4.9457    3.3522 H   0  0  0  0  0  0  0  0  0  0  0  0
    0.4125    1.3576    5.7567 H   0  0  0  0  0  0  0  0  0  0  0  0
    0.2090    3.8338    5.5642 H   0  0  0  0  0  0  0  0  0  0  0  0
    1.0710    3.8159    0.9381 C   0  0  0  0  0  0  0  0  0  0  0  0
    0.9276    3.0750    0.1261 H   0  0  0  0  0  0  0  0  0  0  0  0
    0.9721   -0.4630    3.7953 C   0  0  0  0  0  0  0  0  0  0  0  0
    0.8014   -0.9131    2.7977 H   0  0  0  0  0  0  0  0  0  0  0  0
    2.5105    4.3652    0.8742 C   0  0  0  0  0  0  0  0  0  0  0  0
    3.2698    3.5764    1.0488 H   0  0  0  0  0  0  0  0  0  0  0  0
    2.6662    5.1447    1.6492 H   0  0  0  0  0  0  0  0  0  0  0  0
    2.7098    4.8247   -0.1156 H   0  0  0  0  0  0  0  0  0  0  0  0
    0.0635    4.9462    0.6844 C   0  0  0  0  0  0  0  0  0  0  0  0
   -0.9762    4.5727    0.7346 H   0  0  0  0  0  0  0  0  0  0  0  0
    0.2122    5.3570   -0.3339 H   0  0  0  0  0  0  0  0  0  0  0  0
    0.1874    5.7832    1.4027 H   0  0  0  0  0  0  0  0  0  0  0  0
    2.4061   -0.7926    4.2540 C   0  0  0  0  0  0  0  0  0  0  0  0
    2.5571   -1.8903    4.3083 H   0  0  0  0  0  0  0  0  0  0  0  0
    2.6042   -0.3711    5.2620 H   0  0  0  0  0  0  0  0  0  0  0  0
    3.1719   -0.3743    3.5695 H   0  0  0  0  0  0  0  0  0  0  0  0
   -0.0528   -1.0909    4.7494 C   0  0  0  0  0  0  0  0  0  0  0  0
    0.0474   -2.1946    4.7320 H   0  0  0  0  0  0  0  0  0  0  0  0
   -1.0851   -0.8481    4.4346 H   0  0  0  0  0  0  0  0  0  0  0  0
    0.0964   -0.7627    5.7993 H   0  0  0  0  0  0  0  0  0  0  0  0
    0.2098   -0.9727   -1.6475 C   0  0  0  0  0  0  0  0  0  0  0  0
   -0.1825   -1.4384   -4.0958 C   0  0  0  0  0  0  0  0  0  0  0  0
   -0.6960   -3.2123   -2.3603 C   0  0  0  0  0  0  0  0  0  0  0  0
   -0.2264   -2.9429   -3.7962 C   0  0  0  0  0  0  0  0  0  0  0  0
    0.1737   -2.4743   -1.3343 C   0  0  0  0  0  0  0  0  0  0  0  0
    0.6815   -0.6821   -3.0771 C   0  0  0  0  0  0  0  0  0  0  0  0
   -1.2166   -1.0269   -4.0650 H   0  0  0  0  0  0  0  0  0  0  0  0
   -1.7507   -2.8737   -2.2458 H   0  0  0  0  0  0  0  0  0  0  0  0
    0.7916   -3.3735   -3.9343 H   0  0  0  0  0  0  0  0  0  0  0  0
    1.2104   -2.8787   -1.3711 H   0  0  0  0  0  0  0  0  0  0  0  0
    1.7426   -1.0031   -3.1818 H   0  0  0  0  0  0  0  0  0  0  0  0
   -0.8353   -0.5770   -1.5741 H   0  0  0  0  0  0  0  0  0  0  0  0
    0.1938   -1.2531   -5.1228 H   0  0  0  0  0  0  0  0  0  0  0  0
   -0.6954   -4.3003   -2.1446 H   0  0  0  0  0  0  0  0  0  0  0  0
   -0.8865   -3.4600   -4.5232 H   0  0  0  0  0  0  0  0  0  0  0  0
   -0.2131   -2.6160   -0.3041 H   0  0  0  0  0  0  0  0  0  0  0  0
    0.6445    0.4118   -3.2541 H   0  0  0  0  0  0  0  0  0  0  0  0
  1  2  1  0  0  0  0
  1  5  1  0  0  0  0
  1  3  1  0  0  0  0
  1  4  1  0  0  0  0
  5  6  1  0  0  0  0
  5 16  1  0  0  0  0
  5  7  1  0  0  0  0
  7  9  1  0  0  0  0
  7  8  1  0  0  0  0
  9 10  1  0  0  0  0
  9 11  1  0  0  0  0
  9 12  1  0  0  0  0
 13 14  1  0  0  0  0
 13 15  1  0  0  0  0
  7 13  1  0  0  0  0
 13 16  1  0  0  0  0
 16 17  1  0  0  0  0
 16 18  1  0  0  0  0
 19 20  1  0  0  0  0
 19 23  1  0  0  0  0
 20 21  1  0  0  0  0
 21 24  1  0  0  0  0
 21 25  1  0  0  0  0
 21 22  1  0  0  0  0
 22 26  1  0  0  0  0
 22 27  1  0  0  0  0
 22 23  1  0  0  0  0
 28 31  2  0  0  0  0
 31 32  1  0  0  0  0
 29 32  2  0  0  0  0
 29 33  1  0  0  0  0
 30 33  2  0  0  0  0
 28 30  1  0  0  0  0
 32 34  1  0  0  0  0
 33 35  1  0  0  0  0
 20 28  1  0  0  0  0
 29 36  1  0  0  0  0
 37 38  1  0  0  0  0
 31 37  1  0  0  0  0
 39 40  1  0  0  0  0
 30 39  1  0  0  0  0
 41 42  1  0  0  0  0
 41 43  1  0  0  0  0
 41 44  1  0  0  0  0
 37 41  1  0  0  0  0
 45 46  1  0  0  0  0
 45 47  1  0  0  0  0
 45 48  1  0  0  0  0
 37 45  1  0  0  0  0
 49 50  1  0  0  0  0
 49 51  1  0  0  0  0
 49 52  1  0  0  0  0
 39 49  1  0  0  0  0
 53 54  1  0  0  0  0
 53 55  1  0  0  0  0
 53 56  1  0  0  0  0
 39 53  1  0  0  0  0
 57 68  1  0  0  0  0
 57 61  1  0  0  0  0
 57 62  1  0  0  0  0
 58 63  1  0  0  0  0
 58 69  1  0  0  0  0
 58 60  1  0  0  0  0
 58 62  1  0  0  0  0
 59 64  1  0  0  0  0
 59 70  1  0  0  0  0
 59 61  1  0  0  0  0
 59 60  1  0  0  0  0
 60 65  1  0  0  0  0
 60 71  1  0  0  0  0
 61 66  1  0  0  0  0
 61 72  1  0  0  0  0
 62 67  1  0  0  0  0
 62 73  1  0  0  0  0
 23 57  1  0  0  0  0
 16 19  1  0  0  0  0
M  END
>  <DFT-ENERGY>
-2138.9896724

$$$$
