CyDIPP_A1
  CDK     07302413093D

 81 85  0  0  0  0  0  0  0  0999 V2000
    0.6990    0.2517   -0.9637 Ru  0  0  0  0  0  0  0  0  0  0  0  0
    2.4768    0.2517   -2.3529 O   0  0  0  0  0  0  0  0  0  0  0  0
    1.9092   -0.6816    0.0404 C   0  0  0  0  0  0  0  0  0  0  0  0
    1.6764   -0.9745    1.0631 H   0  0  0  0  0  0  0  0  0  0  0  0
    2.7123    1.0269   -3.5787 C   0  0  0  0  0  0  0  0  0  0  0  0
    3.1213    0.3270   -4.3378 H   0  0  0  0  0  0  0  0  0  0  0  0
    1.2905    1.4693   -3.8973 C   0  0  0  0  0  0  0  0  0  0  0  0
    0.9152    2.1783   -3.1331 H   0  0  0  0  0  0  0  0  0  0  0  0
    0.6032    0.5979   -3.8939 H   0  0  0  0  0  0  0  0  0  0  0  0
    1.2223    1.9546   -4.8742 H   0  0  0  0  0  0  0  0  0  0  0  0
    3.6501    2.1728   -3.2453 C   0  0  0  0  0  0  0  0  0  0  0  0
    3.6439    2.9455   -4.0205 H   0  0  0  0  0  0  0  0  0  0  0  0
    4.6842    1.8447   -3.0969 H   0  0  0  0  0  0  0  0  0  0  0  0
    3.3327    2.6565   -2.2996 H   0  0  0  0  0  0  0  0  0  0  0  0
    3.4690   -0.5467   -1.8479 C   0  0  0  0  0  0  0  0  0  0  0  0
    4.6381   -0.8955   -2.5009 C   0  0  0  0  0  0  0  0  0  0  0  0
    4.8573   -0.5450   -3.5068 H   0  0  0  0  0  0  0  0  0  0  0  0
    5.5393   -1.7265   -1.8434 C   0  0  0  0  0  0  0  0  0  0  0  0
    6.4620   -2.0139   -2.3522 H   0  0  0  0  0  0  0  0  0  0  0  0
    5.2893   -2.1981   -0.5581 C   0  0  0  0  0  0  0  0  0  0  0  0
    6.0143   -2.8425   -0.0636 H   0  0  0  0  0  0  0  0  0  0  0  0
    4.1196   -1.8378    0.0835 C   0  0  0  0  0  0  0  0  0  0  0  0
    3.9264   -2.1924    1.0948 H   0  0  0  0  0  0  0  0  0  0  0  0
    3.1841   -1.0224   -0.5559 C   0  0  0  0  0  0  0  0  0  0  0  0
    1.3002    2.4494   -0.4019 Cl  0  0  0  0  0  0  0  0  0  0  0  0
   -0.1252   -1.4565   -2.3247 Cl  0  0  0  0  0  0  0  0  0  0  0  0
   -0.8984    0.1921    0.1981 C   0  0  0  0  0  0  0  0  0  0  0  0
   -1.2511   -0.5318    1.3320 N   0  0  0  0  0  0  0  0  0  0  0  0
   -2.7028   -0.3783    1.7078 C   0  0  0  0  0  0  0  0  0  0  0  0
   -3.2264    0.6507    0.6869 C   0  0  0  0  0  0  0  0  0  0  0  0
   -2.0327    0.9148   -0.1829 N   0  0  0  0  0  0  0  0  0  0  0  0
   -3.2165   -1.3581    1.6279 H   0  0  0  0  0  0  0  0  0  0  0  0
   -2.7975   -0.0287    2.7551 H   0  0  0  0  0  0  0  0  0  0  0  0
   -3.5663    1.5847    1.1778 H   0  0  0  0  0  0  0  0  0  0  0  0
   -4.0652    0.2543    0.0804 H   0  0  0  0  0  0  0  0  0  0  0  0
   -0.4557   -1.3836    2.1868 C   0  0  0  0  0  0  0  0  0  0  0  0
    0.9494   -3.0524    3.9284 C   0  0  0  0  0  0  0  0  0  0  0  0
    0.1195   -0.8368    3.3615 C   0  0  0  0  0  0  0  0  0  0  0  0
   -0.3217   -2.7556    1.8753 C   0  0  0  0  0  0  0  0  0  0  0  0
    0.3820   -3.5779    2.7692 C   0  0  0  0  0  0  0  0  0  0  0  0
    0.8283   -1.6911    4.2153 C   0  0  0  0  0  0  0  0  0  0  0  0
    0.4884   -4.6395    2.5461 H   0  0  0  0  0  0  0  0  0  0  0  0
    1.2948   -1.2893    5.1148 H   0  0  0  0  0  0  0  0  0  0  0  0
    1.4942   -3.7035    4.6111 H   0  0  0  0  0  0  0  0  0  0  0  0
   -0.8875   -3.3548    0.5993 C   0  0  0  0  0  0  0  0  0  0  0  0
   -1.3732   -2.5497   -0.0188 H   0  0  0  0  0  0  0  0  0  0  0  0
    0.0238    0.6475    3.6738 C   0  0  0  0  0  0  0  0  0  0  0  0
   -0.8952    1.0708    3.1900 H   0  0  0  0  0  0  0  0  0  0  0  0
   -1.9504   -4.4103    0.9293 C   0  0  0  0  0  0  0  0  0  0  0  0
   -2.7418   -3.9987    1.5629 H   0  0  0  0  0  0  0  0  0  0  0  0
   -1.5233   -5.2729    1.4519 H   0  0  0  0  0  0  0  0  0  0  0  0
   -2.4171   -4.7870    0.0114 H   0  0  0  0  0  0  0  0  0  0  0  0
    0.2458   -3.9342   -0.2556 C   0  0  0  0  0  0  0  0  0  0  0  0
    1.0087   -3.1647   -0.4616 H   0  0  0  0  0  0  0  0  0  0  0  0
   -0.1317   -4.2468   -1.2384 H   0  0  0  0  0  0  0  0  0  0  0  0
    0.7376   -4.7908    0.2094 H   0  0  0  0  0  0  0  0  0  0  0  0
   -0.0951    0.9235    5.1781 C   0  0  0  0  0  0  0  0  0  0  0  0
   -0.3009    1.9843    5.3620 H   0  0  0  0  0  0  0  0  0  0  0  0
    0.8293    0.6817    5.7150 H   0  0  0  0  0  0  0  0  0  0  0  0
   -0.9047    0.3420    5.6311 H   0  0  0  0  0  0  0  0  0  0  0  0
    1.2404    1.3569    3.0689 C   0  0  0  0  0  0  0  0  0  0  0  0
    1.2099    2.4367    3.2528 H   0  0  0  0  0  0  0  0  0  0  0  0
    1.2726    1.2303    1.9706 H   0  0  0  0  0  0  0  0  0  0  0  0
    2.1849    0.9786    3.4710 H   0  0  0  0  0  0  0  0  0  0  0  0
   -2.1235    1.8584   -1.3352 C   0  0  0  0  0  0  0  0  0  0  0  0
   -2.8208    2.0835   -3.7562 C   0  0  0  0  0  0  0  0  0  0  0  0
   -3.0269    4.0551   -2.1783 C   0  0  0  0  0  0  0  0  0  0  0  0
   -3.6169    3.3485   -3.4064 C   0  0  0  0  0  0  0  0  0  0  0  0
   -2.9550    3.1082   -0.9721 C   0  0  0  0  0  0  0  0  0  0  0  0
   -2.7182    1.1297   -2.5601 C   0  0  0  0  0  0  0  0  0  0  0  0
   -1.8057    2.3615   -4.1017 H   0  0  0  0  0  0  0  0  0  0  0  0
   -2.0156    4.4424   -2.4137 H   0  0  0  0  0  0  0  0  0  0  0  0
   -4.6746    3.0843   -3.2155 H   0  0  0  0  0  0  0  0  0  0  0  0
   -3.9790    2.8269   -0.6658 H   0  0  0  0  0  0  0  0  0  0  0  0
   -3.7122    0.7118   -2.3191 H   0  0  0  0  0  0  0  0  0  0  0  0
   -1.0730    2.2062   -1.5820 H   0  0  0  0  0  0  0  0  0  0  0  0
   -3.2970    1.5599   -4.6071 H   0  0  0  0  0  0  0  0  0  0  0  0
   -3.6372    4.9409   -1.9201 H   0  0  0  0  0  0  0  0  0  0  0  0
   -3.6257    4.0390   -4.2704 H   0  0  0  0  0  0  0  0  0  0  0  0
   -2.4948    3.6274   -0.1090 H   0  0  0  0  0  0  0  0  0  0  0  0
   -2.0778    0.2559   -2.8178 H   0  0  0  0  0  0  0  0  0  0  0  0
  2  1  1  0  0  0  0
  3  1  2  0  0  0  0
  4  3  1  0  0  0  0
  5  2  1  0  0  0  0
  6  5  1  0  0  0  0
  7  5  1  0  0  0  0
  8  7  1  0  0  0  0
  9  7  1  0  0  0  0
 10  7  1  0  0  0  0
 11  5  1  0  0  0  0
 12 11  1  0  0  0  0
 13 11  1  0  0  0  0
 14 11  1  0  0  0  0
 15  2  1  0  0  0  0
 15 24  1  0  0  0  0
 16 15  2  0  0  0  0
 17 16  1  0  0  0  0
 18 16  1  0  0  0  0
 19 18  1  0  0  0  0
 20 18  2  0  0  0  0
 21 20  1  0  0  0  0
 22 20  1  0  0  0  0
 22 24  2  0  0  0  0
 23 22  1  0  0  0  0
 24  3  1  0  0  0  0
  1 25  1  0  0  0  0
  1 26  1  0  0  0  0
 27 28  1  0  0  0  0
 27 31  1  0  0  0  0
 28 29  1  0  0  0  0
 29 32  1  0  0  0  0
 29 33  1  0  0  0  0
 29 30  1  0  0  0  0
 30 34  1  0  0  0  0
 30 35  1  0  0  0  0
 30 31  1  0  0  0  0
 36 39  2  0  0  0  0
 39 40  1  0  0  0  0
 37 40  2  0  0  0  0
 37 41  1  0  0  0  0
 38 41  2  0  0  0  0
 36 38  1  0  0  0  0
 40 42  1  0  0  0  0
 41 43  1  0  0  0  0
 28 36  1  0  0  0  0
 37 44  1  0  0  0  0
 45 46  1  0  0  0  0
 39 45  1  0  0  0  0
 47 48  1  0  0  0  0
 38 47  1  0  0  0  0
 49 50  1  0  0  0  0
 49 51  1  0  0  0  0
 49 52  1  0  0  0  0
 45 49  1  0  0  0  0
 53 54  1  0  0  0  0
 53 55  1  0  0  0  0
 53 56  1  0  0  0  0
 45 53  1  0  0  0  0
 57 58  1  0  0  0  0
 57 59  1  0  0  0  0
 57 60  1  0  0  0  0
 47 57  1  0  0  0  0
 61 62  1  0  0  0  0
 61 63  1  0  0  0  0
 61 64  1  0  0  0  0
 47 61  1  0  0  0  0
 65 76  1  0  0  0  0
 65 69  1  0  0  0  0
 65 70  1  0  0  0  0
 66 71  1  0  0  0  0
 66 77  1  0  0  0  0
 66 68  1  0  0  0  0
 66 70  1  0  0  0  0
 67 72  1  0  0  0  0
 67 78  1  0  0  0  0
 67 69  1  0  0  0  0
 67 68  1  0  0  0  0
 68 73  1  0  0  0  0
 68 79  1  0  0  0  0
 69 74  1  0  0  0  0
 69 80  1  0  0  0  0
 70 75  1  0  0  0  0
 70 81  1  0  0  0  0
 31 65  1  0  0  0  0
  1 27  1  0  0  0  0
M  END
> <FrozenCore-PM6_ENERGY>
-136.452

> <RMSD_CONF_CG-CS>
0.569730

> <RMSD_CONF_GO-CS>
0.000000

> <UID>


> <DESCRIPTOR_DEFINITION_1>
desc1=( echo "1 * ( e( $hartree_to_kcalmol * ( ( $freeEnergyZ - $freeEnergyD ) - ( $freeEnergyX + 2*$G_Ethene - $freeEnergyD - 2*$G_Propene ) - $DDG_reference_HGII ) / $kT ) ) " | bc -l )

> <DESCRIPTOR_DEFINITION_2>
desc1=( echo "1 * ( e( $hartree_to_kcalmol * ( ( $freeEnergyZ - $freeEnergyD ) - ( $freeEnergyX + 2*$G_Ethene - $freeEnergyD - 2*$G_Propene ) - $DDG_reference_HGII ) / $kT ) ) " | bc -l )

> <DESCRIPTOR_DEFINITION_3>
desc1=( echo "1 * ( e( $hartree_to_kcalmol * ( ( $freeEnergyZ - $freeEnergyD ) - ( $freeEnergyX + 2*$G_Ethene - $freeEnergyD - 2*$G_Propene ) - $DDG_reference_HGII ) / $kT ) ) " | bc -l )

> <WEIGHT_DEFINITION_1>
w1=$( echo "1 / ( 1 + e( $hartree_to_kcalmol * ( ( ( $freeEnergyX + 2*$G_Ethene - $freeEnergyD - 2*$G_Propene ) ) - ( $DG_referenceProductionBarrier + $magnitude4 ) ) / $kT ) )" | bc -l )

> <WEIGHT_DEFINITION_2>
w1=$( echo "1 / ( 1 + e( $hartree_to_kcalmol * ( ( ( $freeEnergyX + 2*$G_Ethene - $freeEnergyD - 2*$G_Propene ) ) - ( $DG_referenceProductionBarrier + $magnitude4 ) ) / $kT ) )" | bc -l )

> <WEIGHT_DEFINITION_3>
w1=$( echo "1 / ( 1 + e( $hartree_to_kcalmol * ( ( ( $freeEnergyX + 2*$G_Ethene - $freeEnergyD - 2*$G_Propene ) ) - ( $DG_referenceProductionBarrier + $magnitude4 ) ) / $kT ) )" | bc -l )

> <WEIGHT_DEFINITION_4>
w1=$( echo "1 / ( 1 + e( $hartree_to_kcalmol * ( ( ( $freeEnergyX + 2*$G_Ethene - $freeEnergyD - 2*$G_Propene ) ) - ( $DG_referenceProductionBarrier + $magnitude4 ) ) / $kT ) )" | bc -l )

> <CALCULATION_OF_OVERALL_FITNESS>
fitness=$( echo "( $desc1 + $desc2 + $desc3 ) * ( $w1 * $w2 * $w3 * $w4 )" | bc -l )

> <freeEnergyA>
-2405.72364325

> <freeEnergyF>
-2405.69861033

> <freeEnergyE>
-2405.72364325

> <freeEnergyC>
-2060.46067578

> <freeEnergyL>
-927.850591045

> <freeEnergyX>
-2138.98967212

> <freeEnergyZ>
-2060.44443952

> <freeEnergyD>
-2060.48135892

> <G_Propene>
-117.738020895

> <G_Ethene>
-78.4716324751

> <G_HoveydaProd>
-502.204109499

> <G_SIMes>
-924.27249048

> <G_HG_RuCl2_SIMes>
-2402.13728523

> <DG_referenceProductionBarrier>
0.01468968

> <DG_referencePrecursorStabilityHII>
-0.0052201621

> <DG_referencePrecursorStabilityHI>
0.0117775312

> <DDG_referencePrecursorStability>
.0169976933

> <DG_referenceSynt>
0.0226072217

> <hartree_to_kcalmol>
627.49467516

> <boltzmann_constant>
0.0000000000000000000000138066

> <avogadro_number>
602214000000000000000000

> <jmol_to_kcalmol>
0.00023901

> <temp>
313.15

> <kT>
.6223089948281258706000000000

> <magnitude1>
1.43290809

> <magnitude2>
2.86581618

> <magnitude3>
4.29872427

> <magnitude4>
5.73163236

> <DFT_IDENTIFIER>
1722397224861

> <DFT_MACHINE>
158.36.42.38

> <XTB_IDENTIFIER>
NREC

> <XTB_MACHINE>
NREC

> <DESCRIPTOR_1>
.00005237971364449282

> <DESCRIPTOR_2>
7.815923200569856632

> <DESCRIPTOR_3>
0.0000000001

> <WEIGHT_1>
.99908875301877002505

> <WEIGHT_2>
.99999408272405337479

> <WEIGHT_3>
.99999999999999695245

> <WEIGHT_4>
.99999999890923298837

> <FITNESS>
7.80880708057311597740

$$$$
