
  CDK     07282408203D

 59 62  0  0  0  0  0  0  0  0999 V2000
    1.1761    0.7052   -0.1334 Ru  0  0  0  0  0  0  0  0  0  0  0  0
    2.7127    0.6770   -1.3434 C   0  0  0  0  0  0  0  0  0  0  0  0
    2.5129    1.0394   -2.3676 H   0  0  0  0  0  0  0  0  0  0  0  0
    3.1004    1.8352   -0.3361 C   0  0  0  0  0  0  0  0  0  0  0  0
    3.1885    2.7557   -0.9414 H   0  0  0  0  0  0  0  0  0  0  0  0
    2.0690    2.1613    0.8199 C   0  0  0  0  0  0  0  0  0  0  0  0
    2.4469    1.9043    1.8256 H   0  0  0  0  0  0  0  0  0  0  0  0
    1.5958    3.1538    0.7137 H   0  0  0  0  0  0  0  0  0  0  0  0
    4.0328    1.5135    0.1623 H   0  0  0  0  0  0  0  0  0  0  0  0
    3.3642   -0.2109   -1.2568 H   0  0  0  0  0  0  0  0  0  0  0  0
    0.1760    2.3459   -1.5587 Cl  0  0  0  0  0  0  0  0  0  0  0  0
    2.3455   -0.8355    1.2752 Cl  0  0  0  0  0  0  0  0  0  0  0  0
   -1.0059   -1.3115   -0.7602 N   0  0  0  0  0  0  0  0  0  0  0  0
   -1.5121   -0.1410    1.0022 N   0  0  0  0  0  0  0  0  0  0  0  0
   -0.5488   -0.3084    0.0476 C   0  0  0  0  0  0  0  0  0  0  0  0
   -2.2491   -1.7707   -0.3142 C   0  0  0  0  0  0  0  0  0  0  0  0
   -2.7771   -2.5739   -0.8317 H   0  0  0  0  0  0  0  0  0  0  0  0
   -2.5677   -1.0343    0.7939 C   0  0  0  0  0  0  0  0  0  0  0  0
   -3.4356   -1.0522    1.4558 H   0  0  0  0  0  0  0  0  0  0  0  0
   -0.2776   -1.8003   -1.9060 C   0  0  0  0  0  0  0  0  0  0  0  0
   -0.5222   -1.2084   -3.1646 C   0  0  0  0  0  0  0  0  0  0  0  0
    0.2400   -1.6692   -4.2518 C   0  0  0  0  0  0  0  0  0  0  0  0
    0.0696   -1.2182   -5.2416 H   0  0  0  0  0  0  0  0  0  0  0  0
    1.2000   -2.6872   -4.1103 C   0  0  0  0  0  0  0  0  0  0  0  0
    1.3680   -3.2815   -2.8472 C   0  0  0  0  0  0  0  0  0  0  0  0
    2.0884   -4.1054   -2.7271 H   0  0  0  0  0  0  0  0  0  0  0  0
    0.6343   -2.8626   -1.7235 C   0  0  0  0  0  0  0  0  0  0  0  0
   -1.5542   -0.1288   -3.3360 C   0  0  0  0  0  0  0  0  0  0  0  0
   -2.5215   -0.4075   -2.8708 H   0  0  0  0  0  0  0  0  0  0  0  0
   -1.7303    0.0772   -4.4081 H   0  0  0  0  0  0  0  0  0  0  0  0
   -1.2137    0.8114   -2.8493 H   0  0  0  0  0  0  0  0  0  0  0  0
    2.0350   -3.1263   -5.2867 C   0  0  0  0  0  0  0  0  0  0  0  0
    2.3624   -4.1792   -5.1851 H   0  0  0  0  0  0  0  0  0  0  0  0
    2.9519   -2.5043   -5.3715 H   0  0  0  0  0  0  0  0  0  0  0  0
    1.4824   -3.0230   -6.2410 H   0  0  0  0  0  0  0  0  0  0  0  0
    0.8139   -3.5215   -0.3842 C   0  0  0  0  0  0  0  0  0  0  0  0
   -0.1596   -3.7846    0.0772 H   0  0  0  0  0  0  0  0  0  0  0  0
    1.3354   -2.8366    0.3199 H   0  0  0  0  0  0  0  0  0  0  0  0
    1.4140   -4.4454   -0.4805 H   0  0  0  0  0  0  0  0  0  0  0  0
   -1.4173    0.8319    2.0637 C   0  0  0  0  0  0  0  0  0  0  0  0
   -0.8285    0.4414    3.2865 C   0  0  0  0  0  0  0  0  0  0  0  0
   -0.7051    1.4235    4.2842 C   0  0  0  0  0  0  0  0  0  0  0  0
   -0.2446    1.1425    5.2439 H   0  0  0  0  0  0  0  0  0  0  0  0
   -1.1580    2.7411    4.0924 C   0  0  0  0  0  0  0  0  0  0  0  0
   -1.7847    3.0661    2.8765 C   0  0  0  0  0  0  0  0  0  0  0  0
   -2.1781    4.0830    2.7242 H   0  0  0  0  0  0  0  0  0  0  0  0
   -1.9365    2.1258    1.8423 C   0  0  0  0  0  0  0  0  0  0  0  0
   -0.3512   -0.9661    3.5122 C   0  0  0  0  0  0  0  0  0  0  0  0
   -0.0930   -1.1260    4.5755 H   0  0  0  0  0  0  0  0  0  0  0  0
    0.5522   -1.1706    2.8969 H   0  0  0  0  0  0  0  0  0  0  0  0
   -1.1199   -1.7116    3.2240 H   0  0  0  0  0  0  0  0  0  0  0  0
   -0.9688    3.7831    5.1660 C   0  0  0  0  0  0  0  0  0  0  0  0
   -1.7324    4.5822    5.0991 H   0  0  0  0  0  0  0  0  0  0  0  0
    0.0254    4.2698    5.0702 H   0  0  0  0  0  0  0  0  0  0  0  0
   -1.0167    3.3384    6.1793 H   0  0  0  0  0  0  0  0  0  0  0  0
   -2.6252    2.4858    0.5553 C   0  0  0  0  0  0  0  0  0  0  0  0
   -3.3809    1.7267    0.2683 H   0  0  0  0  0  0  0  0  0  0  0  0
   -1.8896    2.5452   -0.2768 H   0  0  0  0  0  0  0  0  0  0  0  0
   -3.1318    3.4648    0.6436 H   0  0  0  0  0  0  0  0  0  0  0  0
  2  4  1  0  0  0  0
  2  1  1  0  0  0  0
  2  3  1  0  0  0  0
  4  6  1  0  0  0  0
  4  5  1  0  0  0  0
  6  1  1  0  0  0  0
  6  8  1  0  0  0  0
  7  6  1  0  0  0  0
  9  4  1  0  0  0  0
 10  2  1  0  0  0  0
  1 11  1  0  0  0  0
  1 12  1  0  0  0  0
 13 15  1  0  0  0  0
 14 15  1  0  0  0  0
 13 16  1  0  0  0  0
 16 17  1  0  0  0  0
 14 18  1  0  0  0  0
 18 19  1  0  0  0  0
 13 20  1  0  0  0  0
 20 21  2  0  0  0  0
 21 22  1  0  0  0  0
 22 23  1  0  0  0  0
 22 24  2  0  0  0  0
 24 25  1  0  0  0  0
 25 26  1  0  0  0  0
 20 27  1  0  0  0  0
 21 28  1  0  0  0  0
 28 29  1  0  0  0  0
 28 30  1  0  0  0  0
 28 31  1  0  0  0  0
 24 32  1  0  0  0  0
 32 33  1  0  0  0  0
 32 34  1  0  0  0  0
 32 35  1  0  0  0  0
 27 36  1  0  0  0  0
 36 37  1  0  0  0  0
 36 38  1  0  0  0  0
 36 39  1  0  0  0  0
 14 40  1  0  0  0  0
 40 41  1  0  0  0  0
 41 42  2  0  0  0  0
 42 43  1  0  0  0  0
 42 44  1  0  0  0  0
 44 45  2  0  0  0  0
 45 46  1  0  0  0  0
 40 47  2  0  0  0  0
 41 48  1  0  0  0  0
 48 49  1  0  0  0  0
 48 50  1  0  0  0  0
 48 51  1  0  0  0  0
 44 52  1  0  0  0  0
 52 53  1  0  0  0  0
 52 54  1  0  0  0  0
 52 55  1  0  0  0  0
 47 56  1  0  0  0  0
 56 57  1  0  0  0  0
 56 58  1  0  0  0  0
 56 59  1  0  0  0  0
 16 18  2  0  0  0  0
 25 27  2  0  0  0  0
 45 47  1  0  0  0  0
  1 15  1  0  0  0  0
M  END
>  <DFT-ENERGY>
-2055.71274893

$$$$
