
  CDK     07282407003D

 59 63  0  0  0  0  0  0  0  0999 V2000
    0.9862   -1.2725   -2.5968 H   0  0  0  0  0  0  0  0  0  0  0  0
    2.2026   -1.4579   -2.5965 C   0  0  0  0  0  0  0  0  0  0  0  0
    2.1042   -1.7505   -3.6665 H   0  0  0  0  0  0  0  0  0  0  0  0
    2.3515   -2.4412   -1.4846 C   0  0  0  0  0  0  0  0  0  0  0  0
    3.3154   -2.4475   -0.9486 H   0  0  0  0  0  0  0  0  0  0  0  0
    1.8892   -3.4319   -1.6334 H   0  0  0  0  0  0  0  0  0  0  0  0
    1.0749   -0.9407   -0.8566 Ru  0  0  0  0  0  0  0  0  0  0  0  0
    2.6066   -0.1176   -2.1746 C   0  0  0  0  0  0  0  0  0  0  0  0
    3.5292    0.0102   -1.5961 H   0  0  0  0  0  0  0  0  0  0  0  0
    2.3056    0.7354   -2.8060 H   0  0  0  0  0  0  0  0  0  0  0  0
    2.7530   -0.1493    0.7320 Cl  0  0  0  0  0  0  0  0  0  0  0  0
   -0.9057   -1.9907   -1.7375 Cl  0  0  0  0  0  0  0  0  0  0  0  0
   -0.2466   -0.1891    1.8426 N   0  0  0  0  0  0  0  0  0  0  0  0
   -0.2929   -2.3430    1.5480 N   0  0  0  0  0  0  0  0  0  0  0  0
    0.1706   -1.1817    0.9808 C   0  0  0  0  0  0  0  0  0  0  0  0
   -0.9756   -0.7281    2.9038 C   0  0  0  0  0  0  0  0  0  0  0  0
   -1.4150   -0.0943    3.6750 H   0  0  0  0  0  0  0  0  0  0  0  0
   -1.0020   -2.0804    2.7213 C   0  0  0  0  0  0  0  0  0  0  0  0
   -1.4496   -2.8835    3.3088 H   0  0  0  0  0  0  0  0  0  0  0  0
    0.0884    1.2089    1.7655 C   0  0  0  0  0  0  0  0  0  0  0  0
    0.7840    1.7979    2.8465 C   0  0  0  0  0  0  0  0  0  0  0  0
    1.0455    3.1755    2.7825 C   0  0  0  0  0  0  0  0  0  0  0  0
    1.5947    3.6433    3.6144 H   0  0  0  0  0  0  0  0  0  0  0  0
    0.6656    3.9606    1.6794 C   0  0  0  0  0  0  0  0  0  0  0  0
    0.0325    3.3219    0.6020 C   0  0  0  0  0  0  0  0  0  0  0  0
   -0.2389    3.9064   -0.2907 H   0  0  0  0  0  0  0  0  0  0  0  0
   -0.2603    1.9469    0.6177 C   0  0  0  0  0  0  0  0  0  0  0  0
    1.3253    0.9761    3.9889 C   0  0  0  0  0  0  0  0  0  0  0  0
    0.5489    0.6835    4.7250 H   0  0  0  0  0  0  0  0  0  0  0  0
    2.0985    1.5487    4.5347 H   0  0  0  0  0  0  0  0  0  0  0  0
    1.7901    0.0468    3.6024 H   0  0  0  0  0  0  0  0  0  0  0  0
    0.9405    5.4428    1.6577 C   0  0  0  0  0  0  0  0  0  0  0  0
    1.9488    5.6729    2.0561 H   0  0  0  0  0  0  0  0  0  0  0  0
    0.2098    5.9933    2.2881 H   0  0  0  0  0  0  0  0  0  0  0  0
    0.8720    5.8553    0.6328 H   0  0  0  0  0  0  0  0  0  0  0  0
   -0.8382    1.2810   -0.5933 C   0  0  0  0  0  0  0  0  0  0  0  0
   -1.2805    2.0165   -1.2915 H   0  0  0  0  0  0  0  0  0  0  0  0
   -1.5846    0.4985   -0.3707 H   0  0  0  0  0  0  0  0  0  0  0  0
   -0.0181    0.7887   -1.2090 H   0  0  0  0  0  0  0  0  0  0  0  0
   -0.0540   -3.6794    1.0629 C   0  0  0  0  0  0  0  0  0  0  0  0
   -1.1307   -4.4176    0.5288 C   0  0  0  0  0  0  0  0  0  0  0  0
   -0.8581   -5.7117    0.0533 C   0  0  0  0  0  0  0  0  0  0  0  0
   -1.6829   -6.2945   -0.3851 H   0  0  0  0  0  0  0  0  0  0  0  0
    0.4284   -6.2734    0.1142 C   0  0  0  0  0  0  0  0  0  0  0  0
    1.4555   -5.5225    0.7127 C   0  0  0  0  0  0  0  0  0  0  0  0
    2.4604   -5.9615    0.8125 H   0  0  0  0  0  0  0  0  0  0  0  0
    1.2394   -4.2259    1.2104 C   0  0  0  0  0  0  0  0  0  0  0  0
   -2.5345   -3.8717    0.4959 C   0  0  0  0  0  0  0  0  0  0  0  0
   -2.5436   -2.7964    0.2398 H   0  0  0  0  0  0  0  0  0  0  0  0
   -3.0371   -3.9974    1.4791 H   0  0  0  0  0  0  0  0  0  0  0  0
   -3.1416   -4.4085   -0.2569 H   0  0  0  0  0  0  0  0  0  0  0  0
    0.7032   -7.6422   -0.4559 C   0  0  0  0  0  0  0  0  0  0  0  0
   -0.1968   -8.2869   -0.4234 H   0  0  0  0  0  0  0  0  0  0  0  0
    1.5188   -8.1556    0.0902 H   0  0  0  0  0  0  0  0  0  0  0  0
    1.0164   -7.5708   -1.5197 H   0  0  0  0  0  0  0  0  0  0  0  0
    2.3334   -3.4771    1.9201 C   0  0  0  0  0  0  0  0  0  0  0  0
    3.2396   -4.1046    2.0121 H   0  0  0  0  0  0  0  0  0  0  0  0
    2.0130   -3.1857    2.9427 H   0  0  0  0  0  0  0  0  0  0  0  0
    2.6037   -2.5327    1.4043 H   0  0  0  0  0  0  0  0  0  0  0  0
  1  2  1  0  0  0  0
  1  7  1  0  0  0  0
  2  3  1  0  0  0  0
  2  4  1  0  0  0  0
  4  5  1  0  0  0  0
  4  6  1  0  0  0  0
  7  8  1  0  0  0  0
  4  7  1  0  0  0  0
  2  8  1  0  0  0  0
  8  9  1  0  0  0  0
  8 10  1  0  0  0  0
  7 11  1  0  0  0  0
  7 12  1  0  0  0  0
 13 15  1  0  0  0  0
 14 15  1  0  0  0  0
 13 16  1  0  0  0  0
 16 17  1  0  0  0  0
 14 18  1  0  0  0  0
 18 19  1  0  0  0  0
 13 20  1  0  0  0  0
 20 21  2  0  0  0  0
 21 22  1  0  0  0  0
 22 23  1  0  0  0  0
 22 24  2  0  0  0  0
 24 25  1  0  0  0  0
 25 26  1  0  0  0  0
 20 27  1  0  0  0  0
 21 28  1  0  0  0  0
 28 29  1  0  0  0  0
 28 30  1  0  0  0  0
 28 31  1  0  0  0  0
 24 32  1  0  0  0  0
 32 33  1  0  0  0  0
 32 34  1  0  0  0  0
 32 35  1  0  0  0  0
 27 36  1  0  0  0  0
 36 37  1  0  0  0  0
 36 38  1  0  0  0  0
 36 39  1  0  0  0  0
 14 40  1  0  0  0  0
 40 41  1  0  0  0  0
 41 42  2  0  0  0  0
 42 43  1  0  0  0  0
 42 44  1  0  0  0  0
 44 45  2  0  0  0  0
 45 46  1  0  0  0  0
 40 47  2  0  0  0  0
 41 48  1  0  0  0  0
 48 49  1  0  0  0  0
 48 50  1  0  0  0  0
 48 51  1  0  0  0  0
 44 52  1  0  0  0  0
 52 53  1  0  0  0  0
 52 54  1  0  0  0  0
 52 55  1  0  0  0  0
 47 56  1  0  0  0  0
 56 57  1  0  0  0  0
 56 58  1  0  0  0  0
 56 59  1  0  0  0  0
 16 18  2  0  0  0  0
 25 27  2  0  0  0  0
 45 47  1  0  0  0  0
  7 15  1  0  0  0  0
M  END
>  <DFT-ENERGY>
-2055.67028659

$$$$
