HIMes_A1
  CDK     07272420413D

 73 77  0  0  0  0  0  0  0  0999 V2000
    0.6869   -0.2903   -0.0674 Ru  0  0  0  0  0  0  0  0  0  0  0  0
    2.4647   -0.2903   -1.4566 O   0  0  0  0  0  0  0  0  0  0  0  0
    1.8971   -1.2236    0.9367 C   0  0  0  0  0  0  0  0  0  0  0  0
    1.6643   -1.5165    1.9594 H   0  0  0  0  0  0  0  0  0  0  0  0
    2.7002    0.4849   -2.6824 C   0  0  0  0  0  0  0  0  0  0  0  0
    3.1100   -0.2147   -3.4411 H   0  0  0  0  0  0  0  0  0  0  0  0
    1.2781    0.9257   -2.9988 C   0  0  0  0  0  0  0  0  0  0  0  0
    1.2066    1.4244   -3.9680 H   0  0  0  0  0  0  0  0  0  0  0  0
    0.8913    1.6213   -2.2257 H   0  0  0  0  0  0  0  0  0  0  0  0
    0.5908    0.0541   -3.0043 H   0  0  0  0  0  0  0  0  0  0  0  0
    3.6385    1.6309   -2.3486 C   0  0  0  0  0  0  0  0  0  0  0  0
    3.3188    2.1150   -1.4043 H   0  0  0  0  0  0  0  0  0  0  0  0
    3.6325    2.4024   -3.1249 H   0  0  0  0  0  0  0  0  0  0  0  0
    4.6720    1.3025   -2.1986 H   0  0  0  0  0  0  0  0  0  0  0  0
    3.4569   -1.0887   -0.9516 C   0  0  0  0  0  0  0  0  0  0  0  0
    4.6260   -1.4374   -1.6046 C   0  0  0  0  0  0  0  0  0  0  0  0
    4.8448   -1.0871   -2.6106 H   0  0  0  0  0  0  0  0  0  0  0  0
    5.5272   -2.2685   -0.9471 C   0  0  0  0  0  0  0  0  0  0  0  0
    6.4497   -2.5561   -1.4559 H   0  0  0  0  0  0  0  0  0  0  0  0
    5.2772   -2.7401    0.3382 C   0  0  0  0  0  0  0  0  0  0  0  0
    6.0020   -3.3847    0.8324 H   0  0  0  0  0  0  0  0  0  0  0  0
    4.1075   -2.3798    0.9798 C   0  0  0  0  0  0  0  0  0  0  0  0
    3.9143   -2.7344    1.9911 H   0  0  0  0  0  0  0  0  0  0  0  0
    3.1720   -1.5644    0.3404 C   0  0  0  0  0  0  0  0  0  0  0  0
    1.2862    1.9003    0.4925 Cl  0  0  0  0  0  0  0  0  0  0  0  0
   -0.1395   -2.0030   -1.4320 Cl  0  0  0  0  0  0  0  0  0  0  0  0
   -2.1178    0.3884    0.6300 N   0  0  0  0  0  0  0  0  0  0  0  0
   -1.2401   -0.7221    2.3338 N   0  0  0  0  0  0  0  0  0  0  0  0
   -0.9221   -0.2411    1.0544 C   0  0  0  0  0  0  0  0  0  0  0  0
   -3.1278    0.2890    1.6297 C   0  0  0  0  0  0  0  0  0  0  0  0
   -4.1091    0.7065    1.4951 H   0  0  0  0  0  0  0  0  0  0  0  0
   -2.5860   -0.3981    2.6857 C   0  0  0  0  0  0  0  0  0  0  0  0
   -3.0126   -0.6834    3.6293 H   0  0  0  0  0  0  0  0  0  0  0  0
   -2.3767    1.0632   -0.6216 C   0  0  0  0  0  0  0  0  0  0  0  0
   -2.1592    2.4586   -0.7236 C   0  0  0  0  0  0  0  0  0  0  0  0
   -2.4932    3.1116   -1.9191 C   0  0  0  0  0  0  0  0  0  0  0  0
   -2.3231    4.1831   -2.0028 H   0  0  0  0  0  0  0  0  0  0  0  0
   -3.0380    2.4048   -2.9979 C   0  0  0  0  0  0  0  0  0  0  0  0
   -3.2526    1.0241   -2.8846 C   0  0  0  0  0  0  0  0  0  0  0  0
   -3.6736    0.4727   -3.7231 H   0  0  0  0  0  0  0  0  0  0  0  0
   -2.9302    0.3379   -1.7066 C   0  0  0  0  0  0  0  0  0  0  0  0
   -1.5966    3.2648    0.3970 C   0  0  0  0  0  0  0  0  0  0  0  0
   -1.2650    2.6595    1.2550 H   0  0  0  0  0  0  0  0  0  0  0  0
   -2.3182    4.0039    0.7670 H   0  0  0  0  0  0  0  0  0  0  0  0
   -0.6925    3.8115    0.0731 H   0  0  0  0  0  0  0  0  0  0  0  0
   -3.3976    3.1087   -4.2657 C   0  0  0  0  0  0  0  0  0  0  0  0
   -4.4779    3.0440   -4.4621 H   0  0  0  0  0  0  0  0  0  0  0  0
   -2.8852    2.6613   -5.1300 H   0  0  0  0  0  0  0  0  0  0  0  0
   -3.1352    4.1745   -4.2522 H   0  0  0  0  0  0  0  0  0  0  0  0
   -3.1928   -1.1278   -1.6370 C   0  0  0  0  0  0  0  0  0  0  0  0
   -4.2660   -1.3502   -1.6876 H   0  0  0  0  0  0  0  0  0  0  0  0
   -2.7912   -1.6065   -0.7305 H   0  0  0  0  0  0  0  0  0  0  0  0
   -2.7004   -1.6556   -2.4740 H   0  0  0  0  0  0  0  0  0  0  0  0
   -0.4052   -1.4543    3.2539 C   0  0  0  0  0  0  0  0  0  0  0  0
   -0.3620   -2.8676    3.1797 C   0  0  0  0  0  0  0  0  0  0  0  0
    0.3501   -3.5683    4.1587 C   0  0  0  0  0  0  0  0  0  0  0  0
    0.3801   -4.6555    4.1254 H   0  0  0  0  0  0  0  0  0  0  0  0
    1.0315   -2.8845    5.1781 C   0  0  0  0  0  0  0  0  0  0  0  0
    1.0347   -1.4828    5.1998 C   0  0  0  0  0  0  0  0  0  0  0  0
    1.5931   -0.9541    5.9696 H   0  0  0  0  0  0  0  0  0  0  0  0
    0.3319   -0.7507    4.2348 C   0  0  0  0  0  0  0  0  0  0  0  0
   -1.0290   -3.5797    2.0536 C   0  0  0  0  0  0  0  0  0  0  0  0
   -0.8381   -4.6598    2.0506 H   0  0  0  0  0  0  0  0  0  0  0  0
   -0.6695   -3.1902    1.0749 H   0  0  0  0  0  0  0  0  0  0  0  0
   -2.1189   -3.4369    2.0639 H   0  0  0  0  0  0  0  0  0  0  0  0
    1.7676   -3.6596    6.2212 C   0  0  0  0  0  0  0  0  0  0  0  0
    2.1628   -3.0256    7.0259 H   0  0  0  0  0  0  0  0  0  0  0  0
    2.6232   -4.1964    5.7843 H   0  0  0  0  0  0  0  0  0  0  0  0
    1.1214   -4.4137    6.6937 H   0  0  0  0  0  0  0  0  0  0  0  0
    0.3857    0.7383    4.2099 C   0  0  0  0  0  0  0  0  0  0  0  0
   -0.6031    1.1884    4.3775 H   0  0  0  0  0  0  0  0  0  0  0  0
    0.7334    1.1010    3.2180 H   0  0  0  0  0  0  0  0  0  0  0  0
    1.0702    1.1586    4.9569 H   0  0  0  0  0  0  0  0  0  0  0  0
  1  2  1  0  0  0  0
  1  3  2  0  0  0  0
  3  4  1  0  0  0  0
  2  5  1  0  0  0  0
  5  6  1  0  0  0  0
  5  7  1  0  0  0  0
  7  8  1  0  0  0  0
  7  9  1  0  0  0  0
  7 10  1  0  0  0  0
  5 11  1  0  0  0  0
 11 12  1  0  0  0  0
 11 13  1  0  0  0  0
 11 14  1  0  0  0  0
  2 15  1  0  0  0  0
 15 24  1  0  0  0  0
 15 16  2  0  0  0  0
 16 17  1  0  0  0  0
 16 18  1  0  0  0  0
 18 19  1  0  0  0  0
 18 20  2  0  0  0  0
 20 21  1  0  0  0  0
 20 22  1  0  0  0  0
 22 24  2  0  0  0  0
 22 23  1  0  0  0  0
  3 24  1  0  0  0  0
  1 25  1  0  0  0  0
  1 26  1  0  0  0  0
 27 29  1  0  0  0  0
 28 29  1  0  0  0  0
 27 30  1  0  0  0  0
 30 31  1  0  0  0  0
 28 32  1  0  0  0  0
 32 33  1  0  0  0  0
 27 34  1  0  0  0  0
 34 35  2  0  0  0  0
 35 36  1  0  0  0  0
 36 37  1  0  0  0  0
 36 38  2  0  0  0  0
 38 39  1  0  0  0  0
 39 40  1  0  0  0  0
 34 41  1  0  0  0  0
 35 42  1  0  0  0  0
 42 43  1  0  0  0  0
 42 44  1  0  0  0  0
 42 45  1  0  0  0  0
 38 46  1  0  0  0  0
 46 47  1  0  0  0  0
 46 48  1  0  0  0  0
 46 49  1  0  0  0  0
 41 50  1  0  0  0  0
 50 51  1  0  0  0  0
 50 52  1  0  0  0  0
 50 53  1  0  0  0  0
 28 54  1  0  0  0  0
 54 55  1  0  0  0  0
 55 56  2  0  0  0  0
 56 57  1  0  0  0  0
 56 58  1  0  0  0  0
 58 59  2  0  0  0  0
 59 60  1  0  0  0  0
 54 61  2  0  0  0  0
 55 62  1  0  0  0  0
 62 63  1  0  0  0  0
 62 64  1  0  0  0  0
 62 65  1  0  0  0  0
 58 66  1  0  0  0  0
 66 67  1  0  0  0  0
 66 68  1  0  0  0  0
 66 69  1  0  0  0  0
 61 70  1  0  0  0  0
 70 71  1  0  0  0  0
 70 72  1  0  0  0  0
 70 73  1  0  0  0  0
 30 32  2  0  0  0  0
 39 41  2  0  0  0  0
 59 61  1  0  0  0  0
  1 29  1  0  0  0  0
M  END
> <FrozenCore-PM6_ENERGY>
65.318

> <RMSD_CONF_CG-CS>
0.377838

> <RMSD_CONF_GO-CS>
0.000000

> <UID>


> <DESCRIPTOR_DEFINITION_1>
desc1=( echo "1 * ( e( $hartree_to_kcalmol * ( ( $freeEnergyZ - $freeEnergyD ) - ( $freeEnergyX + 2*$G_Ethene - $freeEnergyD - 2*$G_Propene ) - $DDG_reference_HGII ) / $kT ) ) " | bc -l )

> <DESCRIPTOR_DEFINITION_2>
desc1=( echo "1 * ( e( $hartree_to_kcalmol * ( ( $freeEnergyZ - $freeEnergyD ) - ( $freeEnergyX + 2*$G_Ethene - $freeEnergyD - 2*$G_Propene ) - $DDG_reference_HGII ) / $kT ) ) " | bc -l )

> <DESCRIPTOR_DEFINITION_3>
desc1=( echo "1 * ( e( $hartree_to_kcalmol * ( ( $freeEnergyZ - $freeEnergyD ) - ( $freeEnergyX + 2*$G_Ethene - $freeEnergyD - 2*$G_Propene ) - $DDG_reference_HGII ) / $kT ) ) " | bc -l )

> <WEIGHT_DEFINITION_1>
w1=$( echo "1 / ( 1 + e( $hartree_to_kcalmol * ( ( ( $freeEnergyX + 2*$G_Ethene - $freeEnergyD - 2*$G_Propene ) ) - ( $DG_referenceProductionBarrier + $magnitude4 ) ) / $kT ) )" | bc -l )

> <WEIGHT_DEFINITION_2>
w1=$( echo "1 / ( 1 + e( $hartree_to_kcalmol * ( ( ( $freeEnergyX + 2*$G_Ethene - $freeEnergyD - 2*$G_Propene ) ) - ( $DG_referenceProductionBarrier + $magnitude4 ) ) / $kT ) )" | bc -l )

> <WEIGHT_DEFINITION_3>
w1=$( echo "1 / ( 1 + e( $hartree_to_kcalmol * ( ( ( $freeEnergyX + 2*$G_Ethene - $freeEnergyD - 2*$G_Propene ) ) - ( $DG_referenceProductionBarrier + $magnitude4 ) ) / $kT ) )" | bc -l )

> <WEIGHT_DEFINITION_4>
w1=$( echo "1 / ( 1 + e( $hartree_to_kcalmol * ( ( ( $freeEnergyX + 2*$G_Ethene - $freeEnergyD - 2*$G_Propene ) ) - ( $DG_referenceProductionBarrier + $magnitude4 ) ) / $kT ) )" | bc -l )

> <CALCULATION_OF_OVERALL_FITNESS>
fitness=$( echo "( $desc1 + $desc2 + $desc3 ) * ( $w1 * $w2 * $w3 * $w4 )" | bc -l )

> <freeEnergyA>
-2400.9441569

> <freeEnergyF>
-2400.92853896

> <freeEnergyE>
-2400.9441569

> <freeEnergyC>
-2055.68852408

> <freeEnergyL>
-923.082039371

> <freeEnergyX>
-2134.22385391

> <freeEnergyZ>
-2055.67028614

> <freeEnergyD>
-2055.71274885

> <G_Propene>
-117.738020895

> <G_Ethene>
-78.4716324751

> <G_HoveydaProd>
-502.204109499

> <G_SIMes>
-924.27249048

> <G_HG_RuCl2_SIMes>
-2402.13728523

> <DG_referenceProductionBarrier>
0.01468968

> <DG_referencePrecursorStabilityHII>
-0.0052201621

> <DG_referencePrecursorStabilityHI>
0.0117775312

> <DDG_referencePrecursorStability>
.0169976933

> <DG_referenceSynt>
0.0226072217

> <hartree_to_kcalmol>
627.49467516

> <boltzmann_constant>
0.0000000000000000000000138066

> <avogadro_number>
602214000000000000000000

> <jmol_to_kcalmol>
0.00023901

> <temp>
313.15

> <kT>
.6223089948281258706000000000

> <magnitude1>
1.43290809

> <magnitude2>
2.86581618

> <magnitude3>
4.29872427

> <magnitude4>
5.73163236

> <DFT_IDENTIFIER>
1722151892603

> <DFT_MACHINE>
158.36.42.38

> <XTB_IDENTIFIER>
NREC

> <XTB_MACHINE>
NREC

> <DESCRIPTOR_1>
.23401630441915092412

> <DESCRIPTOR_2>
13.046197992123233832

> <DESCRIPTOR_3>
.376274044486318200

> <WEIGHT_1>
.99994537200249435096

> <WEIGHT_2>
.99999999636769295889

> <WEIGHT_3>
.99999999981276225065

> <WEIGHT_4>
.99998552321846964589

> <FITNESS>
13.65554457106158836060

$$$$
