
  CDK     07262420543D

 59 63  0  0  0  0  0  0  0  0999 V2000
   -0.9146   -0.9889    2.7615 H   0  0  0  0  0  0  0  0  0  0  0  0
   -2.1409   -0.8924    2.7901 C   0  0  0  0  0  0  0  0  0  0  0  0
   -2.0863   -0.9300    3.8998 H   0  0  0  0  0  0  0  0  0  0  0  0
   -2.4991   -2.0760    1.9566 C   0  0  0  0  0  0  0  0  0  0  0  0
   -3.4468   -2.0615    1.3969 H   0  0  0  0  0  0  0  0  0  0  0  0
   -2.2012   -3.0586    2.3621 H   0  0  0  0  0  0  0  0  0  0  0  0
   -0.9963   -1.0258    0.9900 Ru  0  0  0  0  0  0  0  0  0  0  0  0
   -2.2273    0.3726    2.0336 C   0  0  0  0  0  0  0  0  0  0  0  0
   -3.1400    0.6030    1.4699 H   0  0  0  0  0  0  0  0  0  0  0  0
   -1.6887    1.2388    2.4566 H   0  0  0  0  0  0  0  0  0  0  0  0
   -2.7332   -0.5593   -0.6555 Cl  0  0  0  0  0  0  0  0  0  0  0  0
    0.8477   -2.0956    2.0804 Cl  0  0  0  0  0  0  0  0  0  0  0  0
    2.6086    0.3875    0.4145 C   0  0  0  0  0  0  0  0  0  0  0  0
    1.4474    0.5567   -0.3732 C   0  0  0  0  0  0  0  0  0  0  0  0
    0.7075    1.7593   -0.4028 C   0  0  0  0  0  0  0  0  0  0  0  0
    1.1114    2.7800    0.4780 C   0  0  0  0  0  0  0  0  0  0  0  0
    2.2178    2.6346    1.3309 C   0  0  0  0  0  0  0  0  0  0  0  0
    2.9650    1.4434    1.2663 C   0  0  0  0  0  0  0  0  0  0  0  0
    0.9973   -0.5481   -1.1844 N   0  0  0  0  0  0  0  0  0  0  0  0
   -0.0380   -1.3660   -0.8035 C   0  0  0  0  0  0  0  0  0  0  0  0
   -0.1363   -2.3122   -1.7925 N   0  0  0  0  0  0  0  0  0  0  0  0
    0.8339   -2.0851   -2.7768 C   0  0  0  0  0  0  0  0  0  0  0  0
    1.5390   -0.9673   -2.3992 C   0  0  0  0  0  0  0  0  0  0  0  0
   -1.1323   -3.3546   -1.8679 C   0  0  0  0  0  0  0  0  0  0  0  0
   -0.9620   -4.5123   -1.0828 C   0  0  0  0  0  0  0  0  0  0  0  0
   -1.9672   -5.4931   -1.1537 C   0  0  0  0  0  0  0  0  0  0  0  0
   -3.0905   -5.3500   -1.9851 C   0  0  0  0  0  0  0  0  0  0  0  0
   -3.1829   -4.2025   -2.7925 C   0  0  0  0  0  0  0  0  0  0  0  0
   -2.2122   -3.1887   -2.7623 C   0  0  0  0  0  0  0  0  0  0  0  0
    0.2588   -4.7179   -0.2299 C   0  0  0  0  0  0  0  0  0  0  0  0
   -4.1767   -6.3956   -2.0082 C   0  0  0  0  0  0  0  0  0  0  0  0
   -2.3131   -1.9990   -3.6787 C   0  0  0  0  0  0  0  0  0  0  0  0
   -0.4232    1.9717   -1.3711 C   0  0  0  0  0  0  0  0  0  0  0  0
    2.6061    3.7279    2.2937 C   0  0  0  0  0  0  0  0  0  0  0  0
    3.4516   -0.8548    0.3202 C   0  0  0  0  0  0  0  0  0  0  0  0
    1.0587   -3.1055   -4.1270 Cl  0  0  0  0  0  0  0  0  0  0  0  0
    2.8120   -0.1488   -3.1892 Cl  0  0  0  0  0  0  0  0  0  0  0  0
   -1.8558   -6.4036   -0.5450 H   0  0  0  0  0  0  0  0  0  0  0  0
   -4.0414   -4.0856   -3.4716 H   0  0  0  0  0  0  0  0  0  0  0  0
    0.3102   -5.7620    0.1309 H   0  0  0  0  0  0  0  0  0  0  0  0
    0.2685   -4.0421    0.6501 H   0  0  0  0  0  0  0  0  0  0  0  0
    1.1876   -4.5032   -0.7976 H   0  0  0  0  0  0  0  0  0  0  0  0
   -4.5881   -6.5337   -3.0276 H   0  0  0  0  0  0  0  0  0  0  0  0
   -5.0236   -6.0970   -1.3539 H   0  0  0  0  0  0  0  0  0  0  0  0
   -3.8090   -7.3749   -1.6457 H   0  0  0  0  0  0  0  0  0  0  0  0
   -1.6129   -2.0969   -4.5350 H   0  0  0  0  0  0  0  0  0  0  0  0
   -2.0804   -1.0610   -3.1399 H   0  0  0  0  0  0  0  0  0  0  0  0
   -3.3364   -1.9120   -4.0891 H   0  0  0  0  0  0  0  0  0  0  0  0
    0.5471    3.7252    0.4787 H   0  0  0  0  0  0  0  0  0  0  0  0
    3.8555    1.3265    1.9027 H   0  0  0  0  0  0  0  0  0  0  0  0
   -0.1135    1.7112   -2.4043 H   0  0  0  0  0  0  0  0  0  0  0  0
   -0.7433    3.0302   -1.3651 H   0  0  0  0  0  0  0  0  0  0  0  0
   -1.3025    1.3358   -1.1320 H   0  0  0  0  0  0  0  0  0  0  0  0
    2.0960    4.6812    2.0576 H   0  0  0  0  0  0  0  0  0  0  0  0
    3.6999    3.9072    2.2845 H   0  0  0  0  0  0  0  0  0  0  0  0
    2.3339    3.4505    3.3342 H   0  0  0  0  0  0  0  0  0  0  0  0
    2.8261   -1.7668    0.3467 H   0  0  0  0  0  0  0  0  0  0  0  0
    4.1630   -0.9076    1.1648 H   0  0  0  0  0  0  0  0  0  0  0  0
    4.0382   -0.8608   -0.6227 H   0  0  0  0  0  0  0  0  0  0  0  0
  1  2  1  0  0  0  0
  1  7  1  0  0  0  0
  2  3  1  0  0  0  0
  2  4  1  0  0  0  0
  4  5  1  0  0  0  0
  4  6  1  0  0  0  0
  7  8  1  0  0  0  0
  4  7  1  0  0  0  0
  2  8  1  0  0  0  0
  8  9  1  0  0  0  0
  8 10  1  0  0  0  0
  7 11  1  0  0  0  0
  7 12  1  0  0  0  0
 13 14  2  0  0  0  0
 13 18  2  0  0  0  0
 13 35  1  0  0  0  0
 14 15  2  0  0  0  0
 14 19  1  0  0  0  0
 15 16  2  0  0  0  0
 15 33  1  0  0  0  0
 16 17  2  0  0  0  0
 16 49  1  0  0  0  0
 17 18  2  0  0  0  0
 17 34  1  0  0  0  0
 18 50  1  0  0  0  0
 19 20  1  0  0  0  0
 19 23  1  0  0  0  0
 20 21  1  0  0  0  0
 21 22  1  0  0  0  0
 21 24  1  0  0  0  0
 22 23  2  0  0  0  0
 22 36  1  0  0  0  0
 23 37  1  0  0  0  0
 24 25  2  0  0  0  0
 24 29  2  0  0  0  0
 25 26  2  0  0  0  0
 25 30  1  0  0  0  0
 26 27  2  0  0  0  0
 26 38  1  0  0  0  0
 27 28  2  0  0  0  0
 27 31  1  0  0  0  0
 28 29  2  0  0  0  0
 28 39  1  0  0  0  0
 29 32  1  0  0  0  0
 30 40  1  0  0  0  0
 30 41  1  0  0  0  0
 30 42  1  0  0  0  0
 31 43  1  0  0  0  0
 31 44  1  0  0  0  0
 31 45  1  0  0  0  0
 32 46  1  0  0  0  0
 32 47  1  0  0  0  0
 32 48  1  0  0  0  0
 33 51  1  0  0  0  0
 33 52  1  0  0  0  0
 33 53  1  0  0  0  0
 34 54  1  0  0  0  0
 34 55  1  0  0  0  0
 34 56  1  0  0  0  0
 35 57  1  0  0  0  0
 35 58  1  0  0  0  0
 35 59  1  0  0  0  0
  7 20  1  0  0  0  0
M  END
>  <DFT-ENERGY>
-2974.51310821

$$$$
