M00000023_A1
  CDK     07262409393D

 73 77  0  0  0  0  0  0  0  0999 V2000
    0.7489   -0.3219   -0.2216 Ru  0  0  0  0  0  0  0  0  0  0  0  0
    2.5267   -0.3219   -1.6108 O   0  0  0  0  0  0  0  0  0  0  0  0
    1.9591   -1.2552    0.7825 C   0  0  0  0  0  0  0  0  0  0  0  0
    1.7263   -1.5481    1.8052 H   0  0  0  0  0  0  0  0  0  0  0  0
    2.7622    0.4533   -2.8366 C   0  0  0  0  0  0  0  0  0  0  0  0
    3.1601   -0.2495   -3.5989 H   0  0  0  0  0  0  0  0  0  0  0  0
    1.3450    0.9137   -3.1456 C   0  0  0  0  0  0  0  0  0  0  0  0
    1.2802    1.4186   -4.1131 H   0  0  0  0  0  0  0  0  0  0  0  0
    0.9767    1.6186   -2.3705 H   0  0  0  0  0  0  0  0  0  0  0  0
    0.6473    0.0510   -3.1561 H   0  0  0  0  0  0  0  0  0  0  0  0
    3.7126    1.5897   -2.5054 C   0  0  0  0  0  0  0  0  0  0  0  0
    3.7124    2.3620   -3.2811 H   0  0  0  0  0  0  0  0  0  0  0  0
    4.7437    1.2521   -2.3585 H   0  0  0  0  0  0  0  0  0  0  0  0
    3.4005    2.0775   -1.5600 H   0  0  0  0  0  0  0  0  0  0  0  0
    3.5189   -1.1203   -1.1058 C   0  0  0  0  0  0  0  0  0  0  0  0
    4.6880   -1.4690   -1.7588 C   0  0  0  0  0  0  0  0  0  0  0  0
    4.9072   -1.1194   -2.7650 H   0  0  0  0  0  0  0  0  0  0  0  0
    5.5892   -2.3001   -1.1013 C   0  0  0  0  0  0  0  0  0  0  0  0
    6.5118   -2.5878   -1.6102 H   0  0  0  0  0  0  0  0  0  0  0  0
    5.3392   -2.7717    0.1840 C   0  0  0  0  0  0  0  0  0  0  0  0
    6.0640   -3.4167    0.6782 H   0  0  0  0  0  0  0  0  0  0  0  0
    4.1695   -2.4114    0.8256 C   0  0  0  0  0  0  0  0  0  0  0  0
    3.9763   -2.7660    1.8369 H   0  0  0  0  0  0  0  0  0  0  0  0
    3.2340   -1.5960    0.1862 C   0  0  0  0  0  0  0  0  0  0  0  0
    1.3469    1.8642    0.3372 Cl  0  0  0  0  0  0  0  0  0  0  0  0
   -0.0767   -2.0331   -1.5850 Cl  0  0  0  0  0  0  0  0  0  0  0  0
   -2.0735    1.7309   -1.3040 C   0  0  0  0  0  0  0  0  0  0  0  0
   -1.8197    1.8731    0.0780 C   0  0  0  0  0  0  0  0  0  0  0  0
   -1.6447    3.1602    0.6526 C   0  0  0  0  0  0  0  0  0  0  0  0
   -1.7988    4.2879   -0.1600 C   0  0  0  0  0  0  0  0  0  0  0  0
   -2.0918    4.1581   -1.5263 C   0  0  0  0  0  0  0  0  0  0  0  0
   -2.2153    2.8835   -2.0913 C   0  0  0  0  0  0  0  0  0  0  0  0
   -1.7803    0.7052    0.9296 N   0  0  0  0  0  0  0  0  0  0  0  0
   -0.7630   -0.2844    1.0175 C   0  0  0  0  0  0  0  0  0  0  0  0
   -1.2113   -1.1336    2.0541 N   0  0  0  0  0  0  0  0  0  0  0  0
   -2.4850   -0.7051    2.5423 C   0  0  0  0  0  0  0  0  0  0  0  0
   -2.8399    0.4226    1.8408 C   0  0  0  0  0  0  0  0  0  0  0  0
   -0.5718   -2.2888    2.6402 C   0  0  0  0  0  0  0  0  0  0  0  0
   -0.7157   -3.5651    2.0520 C   0  0  0  0  0  0  0  0  0  0  0  0
   -0.1319   -4.6699    2.6944 C   0  0  0  0  0  0  0  0  0  0  0  0
    0.5731   -4.5205    3.8924 C   0  0  0  0  0  0  0  0  0  0  0  0
    0.7081   -3.2450    4.4675 C   0  0  0  0  0  0  0  0  0  0  0  0
    0.1412   -2.1248    3.8569 C   0  0  0  0  0  0  0  0  0  0  0  0
   -1.4534   -3.7815    0.7782 C   0  0  0  0  0  0  0  0  0  0  0  0
    1.1682   -5.7094    4.5726 C   0  0  0  0  0  0  0  0  0  0  0  0
    0.2809   -0.7763    4.4809 C   0  0  0  0  0  0  0  0  0  0  0  0
   -1.2864    3.3245    2.0911 C   0  0  0  0  0  0  0  0  0  0  0  0
   -2.2550    5.3825   -2.3667 C   0  0  0  0  0  0  0  0  0  0  0  0
   -2.1528    0.3942   -1.9583 C   0  0  0  0  0  0  0  0  0  0  0  0
   -3.2979   -1.5201    3.7652 Cl  0  0  0  0  0  0  0  0  0  0  0  0
   -4.2357    1.3533    1.9316 Cl  0  0  0  0  0  0  0  0  0  0  0  0
   -0.2353   -5.6561    2.2443 H   0  0  0  0  0  0  0  0  0  0  0  0
    1.2540   -3.1314    5.4015 H   0  0  0  0  0  0  0  0  0  0  0  0
   -2.2664   -4.5103    0.8924 H   0  0  0  0  0  0  0  0  0  0  0  0
   -0.7744   -4.1627   -0.0088 H   0  0  0  0  0  0  0  0  0  0  0  0
   -1.8891   -2.8651    0.3508 H   0  0  0  0  0  0  0  0  0  0  0  0
    1.3658   -6.5375    3.8781 H   0  0  0  0  0  0  0  0  0  0  0  0
    0.4860   -6.0938    5.3466 H   0  0  0  0  0  0  0  0  0  0  0  0
    2.1194   -5.4731    5.0688 H   0  0  0  0  0  0  0  0  0  0  0  0
   -0.6959   -0.3959    4.8205 H   0  0  0  0  0  0  0  0  0  0  0  0
    0.6822   -0.0376    3.7671 H   0  0  0  0  0  0  0  0  0  0  0  0
    0.9488   -0.7756    5.3520 H   0  0  0  0  0  0  0  0  0  0  0  0
   -1.6735    5.2794    0.2705 H   0  0  0  0  0  0  0  0  0  0  0  0
   -2.4213    2.7788   -3.1541 H   0  0  0  0  0  0  0  0  0  0  0  0
   -1.1436    4.3749    2.3758 H   0  0  0  0  0  0  0  0  0  0  0  0
   -0.3302    2.8087    2.3023 H   0  0  0  0  0  0  0  0  0  0  0  0
   -2.0456    2.9041    2.7633 H   0  0  0  0  0  0  0  0  0  0  0  0
   -1.3094    5.9420   -2.4328 H   0  0  0  0  0  0  0  0  0  0  0  0
   -3.0050    6.0648   -1.9410 H   0  0  0  0  0  0  0  0  0  0  0  0
   -2.5696    5.1577   -3.3939 H   0  0  0  0  0  0  0  0  0  0  0  0
   -2.3110   -0.4438   -1.2598 H   0  0  0  0  0  0  0  0  0  0  0  0
   -1.2059    0.1695   -2.4928 H   0  0  0  0  0  0  0  0  0  0  0  0
   -2.9591    0.3369   -2.7018 H   0  0  0  0  0  0  0  0  0  0  0  0
  1  2  1  0  0  0  0
  1  3  2  0  0  0  0
  3  4  1  0  0  0  0
  2  5  1  0  0  0  0
  5  6  1  0  0  0  0
  5  7  1  0  0  0  0
  7  8  1  0  0  0  0
  7  9  1  0  0  0  0
  7 10  1  0  0  0  0
  5 11  1  0  0  0  0
 11 12  1  0  0  0  0
 11 13  1  0  0  0  0
 11 14  1  0  0  0  0
  2 15  1  0  0  0  0
 15 24  1  0  0  0  0
 15 16  2  0  0  0  0
 16 17  1  0  0  0  0
 16 18  1  0  0  0  0
 18 19  1  0  0  0  0
 18 20  2  0  0  0  0
 20 21  1  0  0  0  0
 20 22  1  0  0  0  0
 22 24  2  0  0  0  0
 22 23  1  0  0  0  0
  3 24  1  0  0  0  0
  1 25  1  0  0  0  0
  1 26  1  0  0  0  0
 27 28  2  0  0  0  0
 27 32  2  0  0  0  0
 27 49  1  0  0  0  0
 28 29  2  0  0  0  0
 28 33  1  0  0  0  0
 29 30  2  0  0  0  0
 29 47  1  0  0  0  0
 30 31  2  0  0  0  0
 30 63  1  0  0  0  0
 31 32  2  0  0  0  0
 31 48  1  0  0  0  0
 32 64  1  0  0  0  0
 33 34  1  0  0  0  0
 33 37  1  0  0  0  0
 34 35  1  0  0  0  0
 35 36  1  0  0  0  0
 35 38  1  0  0  0  0
 36 37  2  0  0  0  0
 36 50  1  0  0  0  0
 37 51  1  0  0  0  0
 38 39  2  0  0  0  0
 38 43  2  0  0  0  0
 39 40  2  0  0  0  0
 39 44  1  0  0  0  0
 40 41  2  0  0  0  0
 40 52  1  0  0  0  0
 41 42  2  0  0  0  0
 41 45  1  0  0  0  0
 42 43  2  0  0  0  0
 42 53  1  0  0  0  0
 43 46  1  0  0  0  0
 44 54  1  0  0  0  0
 44 55  1  0  0  0  0
 44 56  1  0  0  0  0
 45 57  1  0  0  0  0
 45 58  1  0  0  0  0
 45 59  1  0  0  0  0
 46 60  1  0  0  0  0
 46 61  1  0  0  0  0
 46 62  1  0  0  0  0
 47 65  1  0  0  0  0
 47 66  1  0  0  0  0
 47 67  1  0  0  0  0
 48 68  1  0  0  0  0
 48 69  1  0  0  0  0
 48 70  1  0  0  0  0
 49 71  1  0  0  0  0
 49 72  1  0  0  0  0
 49 73  1  0  0  0  0
  1 34  1  0  0  0  0
M  END
> <FrozenCore-PM6_ENERGY>
39.876

> <RMSD_CONF_CG-CS>
3.030752

> <RMSD_CONF_GO-CS>
0.000000

> <UID>


> <DESCRIPTOR_DEFINITION_1>
desc1=( echo "1 * ( e( $hartree_to_kcalmol * ( ( $freeEnergyZ - $freeEnergyD ) - ( $freeEnergyX + 2*$G_Ethene - $freeEnergyD - 2*$G_Propene ) - $DDG_reference_HGII ) / $kT ) ) " | bc -l )

> <DESCRIPTOR_DEFINITION_2>
desc1=( echo "1 * ( e( $hartree_to_kcalmol * ( ( $freeEnergyZ - $freeEnergyD ) - ( $freeEnergyX + 2*$G_Ethene - $freeEnergyD - 2*$G_Propene ) - $DDG_reference_HGII ) / $kT ) ) " | bc -l )

> <DESCRIPTOR_DEFINITION_3>
desc1=( echo "1 * ( e( $hartree_to_kcalmol * ( ( $freeEnergyZ - $freeEnergyD ) - ( $freeEnergyX + 2*$G_Ethene - $freeEnergyD - 2*$G_Propene ) - $DDG_reference_HGII ) / $kT ) ) " | bc -l )

> <WEIGHT_DEFINITION_1>
w1=$( echo "1 / ( 1 + e( $hartree_to_kcalmol * ( ( ( $freeEnergyX + 2*$G_Ethene - $freeEnergyD - 2*$G_Propene ) ) - ( $DG_referenceProductionBarrier + $magnitude4 ) ) / $kT ) )" | bc -l )

> <WEIGHT_DEFINITION_2>
w1=$( echo "1 / ( 1 + e( $hartree_to_kcalmol * ( ( ( $freeEnergyX + 2*$G_Ethene - $freeEnergyD - 2*$G_Propene ) ) - ( $DG_referenceProductionBarrier + $magnitude4 ) ) / $kT ) )" | bc -l )

> <WEIGHT_DEFINITION_3>
w1=$( echo "1 / ( 1 + e( $hartree_to_kcalmol * ( ( ( $freeEnergyX + 2*$G_Ethene - $freeEnergyD - 2*$G_Propene ) ) - ( $DG_referenceProductionBarrier + $magnitude4 ) ) / $kT ) )" | bc -l )

> <WEIGHT_DEFINITION_4>
w1=$( echo "1 / ( 1 + e( $hartree_to_kcalmol * ( ( ( $freeEnergyX + 2*$G_Ethene - $freeEnergyD - 2*$G_Propene ) ) - ( $DG_referenceProductionBarrier + $magnitude4 ) ) / $kT ) )" | bc -l )

> <CALCULATION_OF_OVERALL_FITNESS>
fitness=$( echo "( $desc1 + $desc2 + $desc3 ) * ( $w1 * $w2 * $w3 * $w4 )" | bc -l )

> <freeEnergyA>
-3319.7915745

> <freeEnergyF>
-3319.77541841

> <freeEnergyE>
-3319.7915745

> <freeEnergyC>
-2974.53449742

> <freeEnergyL>
-1841.93264962

> <freeEnergyX>
-3053.06925277

> <freeEnergyZ>
-2974.51310772

> <freeEnergyD>
-2974.55763174

> <G_Propene>
-117.738020895

> <G_Ethene>
-78.4716324751

> <G_HoveydaProd>
-502.204109499

> <G_SIMes>
-924.27249048

> <G_HG_RuCl2_SIMes>
-2402.13728523

> <DG_referenceProductionBarrier>
0.01468968

> <DG_referencePrecursorStabilityHII>
-0.0052201621

> <DG_referencePrecursorStabilityHI>
0.0117775312

> <DDG_referencePrecursorStability>
.0169976933

> <DG_referenceSynt>
0.0226072217

> <hartree_to_kcalmol>
627.49467516

> <boltzmann_constant>
0.0000000000000000000000138066

> <avogadro_number>
602214000000000000000000

> <jmol_to_kcalmol>
0.00023901

> <temp>
313.15

> <kT>
.6223089948281258706000000000

> <magnitude1>
1.43290809

> <magnitude2>
2.86581618

> <magnitude3>
4.29872427

> <magnitude4>
5.73163236

> <DFT_IDENTIFIER>
1722029562882

> <DFT_MACHINE>
158.36.42.38

> <XTB_IDENTIFIER>
NREC

> <XTB_MACHINE>
NREC

> <DESCRIPTOR_1>
3.14681836707128601108

> <DESCRIPTOR_2>
14.663427468519598632

> <DESCRIPTOR_3>
.700042472028623400

> <WEIGHT_1>
.99996753056696750313

> <WEIGHT_2>
.99999998441727460972

> <WEIGHT_3>
.99999999531728930031

> <WEIGHT_4>
.99999158582512536631

> <FITNESS>
18.50953117020343946980

$$$$
