
  CDK     08132403293D

 64 67  0  0  0  0  0  0  0  0999 V2000
   -0.6840    3.9481   -1.8886 C   0  0  0  0  0  0  0  0  0  0  0  0
    0.2668    3.8973   -2.4485 H   0  0  0  0  0  0  0  0  0  0  0  0
   -1.2645    4.8423   -2.2071 H   0  0  0  0  0  0  0  0  0  0  0  0
   -1.3021    3.0683   -2.1736 H   0  0  0  0  0  0  0  0  0  0  0  0
   -0.4687    4.0126   -0.3941 C   0  0  0  0  0  0  0  0  0  0  0  0
   -1.3790    4.1472    0.2183 H   0  0  0  0  0  0  0  0  0  0  0  0
    0.7493    4.4191    0.2126 C   0  0  0  0  0  0  0  0  0  0  0  0
    1.6276    4.5427   -0.4445 H   0  0  0  0  0  0  0  0  0  0  0  0
    0.7105    5.2165    1.4977 C   0  0  0  0  0  0  0  0  0  0  0  0
    1.6786    5.2226    2.0333 H   0  0  0  0  0  0  0  0  0  0  0  0
    0.4661    6.2703    1.2424 H   0  0  0  0  0  0  0  0  0  0  0  0
   -0.0802    4.8373    2.1742 H   0  0  0  0  0  0  0  0  0  0  0  0
    1.5920    2.5881    1.3629 C   0  0  0  0  0  0  0  0  0  0  0  0
    1.2885    2.7791    2.4158 H   0  0  0  0  0  0  0  0  0  0  0  0
    2.6719    2.7041    1.1132 H   0  0  0  0  0  0  0  0  0  0  0  0
    0.3837    2.0938    0.0913 Ru  0  0  0  0  0  0  0  0  0  0  0  0
   -1.3621    2.0748    1.7615 Cl  0  0  0  0  0  0  0  0  0  0  0  0
    2.0704    2.0937   -1.6056 Cl  0  0  0  0  0  0  0  0  0  0  0  0
    0.1906   -0.2584   -0.0735 P   0  0  0  0  0  0  0  0  0  0  0  0
   -1.0398   -0.6422   -1.4278 C   0  0  0  0  0  0  0  0  0  0  0  0
   -1.1526   -1.7497   -1.4487 H   0  0  0  0  0  0  0  0  0  0  0  0
   -2.4111   -0.0246   -1.0953 C   0  0  0  0  0  0  0  0  0  0  0  0
   -2.7874   -0.4036   -0.1240 H   0  0  0  0  0  0  0  0  0  0  0  0
   -2.2972    1.0734   -0.9541 H   0  0  0  0  0  0  0  0  0  0  0  0
   -2.9096    0.1741   -3.5748 C   0  0  0  0  0  0  0  0  0  0  0  0
   -2.8034    1.2828   -3.5558 H   0  0  0  0  0  0  0  0  0  0  0  0
   -3.6469   -0.0566   -4.3716 H   0  0  0  0  0  0  0  0  0  0  0  0
   -0.4431   -1.1012    1.4706 C   0  0  0  0  0  0  0  0  0  0  0  0
   -1.3673   -0.5268    1.6983 H   0  0  0  0  0  0  0  0  0  0  0  0
    1.7150   -1.1987   -0.4938 C   0  0  0  0  0  0  0  0  0  0  0  0
   -0.5209   -0.1708   -2.7977 C   0  0  0  0  0  0  0  0  0  0  0  0
   -0.3026    0.9180   -2.7546 H   0  0  0  0  0  0  0  0  0  0  0  0
    0.4504   -0.6515   -3.0289 H   0  0  0  0  0  0  0  0  0  0  0  0
   -1.5493   -0.4552   -3.9001 C   0  0  0  0  0  0  0  0  0  0  0  0
   -1.1667   -0.0811   -4.8721 H   0  0  0  0  0  0  0  0  0  0  0  0
   -1.6740   -1.5564   -4.0137 H   0  0  0  0  0  0  0  0  0  0  0  0
   -3.4253   -0.3048   -2.2122 C   0  0  0  0  0  0  0  0  0  0  0  0
   -3.6225   -1.4000   -2.2605 H   0  0  0  0  0  0  0  0  0  0  0  0
   -4.3938    0.1777   -1.9663 H   0  0  0  0  0  0  0  0  0  0  0  0
    0.5392   -0.8712    2.6305 C   0  0  0  0  0  0  0  0  0  0  0  0
    1.5160   -1.3466    2.3884 H   0  0  0  0  0  0  0  0  0  0  0  0
    0.7141    0.2168    2.7483 H   0  0  0  0  0  0  0  0  0  0  0  0
   -0.7697   -2.5910    1.2966 C   0  0  0  0  0  0  0  0  0  0  0  0
    0.1515   -3.1415    1.0044 H   0  0  0  0  0  0  0  0  0  0  0  0
   -1.5081   -2.7416    0.4815 H   0  0  0  0  0  0  0  0  0  0  0  0
   -0.3462   -2.9547    3.7728 C   0  0  0  0  0  0  0  0  0  0  0  0
    0.5925   -3.5221    3.5793 H   0  0  0  0  0  0  0  0  0  0  0  0
   -0.7725   -3.3619    4.7133 H   0  0  0  0  0  0  0  0  0  0  0  0
   -1.3175   -3.1792    2.6075 C   0  0  0  0  0  0  0  0  0  0  0  0
   -2.2913   -2.6944    2.8435 H   0  0  0  0  0  0  0  0  0  0  0  0
   -1.5263   -4.2613    2.4743 H   0  0  0  0  0  0  0  0  0  0  0  0
   -0.0129   -1.4664    3.9329 C   0  0  0  0  0  0  0  0  0  0  0  0
    0.7178   -1.3168    4.7548 H   0  0  0  0  0  0  0  0  0  0  0  0
   -0.9317   -0.9079    4.2195 H   0  0  0  0  0  0  0  0  0  0  0  0
    2.9613   -0.7152   -0.0515 C   0  0  0  0  0  0  0  0  0  0  0  0
    1.6568   -2.4314   -1.1751 C   0  0  0  0  0  0  0  0  0  0  0  0
    4.1275   -1.4604   -0.2728 C   0  0  0  0  0  0  0  0  0  0  0  0
    3.0133    0.2607    0.4487 H   0  0  0  0  0  0  0  0  0  0  0  0
    0.6948   -2.8241   -1.5337 H   0  0  0  0  0  0  0  0  0  0  0  0
    2.8276   -3.1685   -1.4066 C   0  0  0  0  0  0  0  0  0  0  0  0
    4.0640   -2.6865   -0.9519 C   0  0  0  0  0  0  0  0  0  0  0  0
    2.7706   -4.1256   -1.9452 H   0  0  0  0  0  0  0  0  0  0  0  0
    5.0950   -1.0709    0.0753 H   0  0  0  0  0  0  0  0  0  0  0  0
    4.9813   -3.2651   -1.1338 H   0  0  0  0  0  0  0  0  0  0  0  0
  1  2  1  0  0  0  0
  1  5  1  0  0  0  0
  3  1  1  0  0  0  0
  4  1  1  0  0  0  0
  5  6  1  0  0  0  0
  5 16  1  0  0  0  0
  5  7  1  0  0  0  0
  7  9  1  0  0  0  0
  7  8  1  0  0  0  0
  9 10  1  0  0  0  0
 11  9  1  0  0  0  0
 12  9  1  0  0  0  0
 13 14  1  0  0  0  0
 13 15  1  0  0  0  0
 13  7  1  0  0  0  0
 16 13  1  0  0  0  0
 16 17  1  0  0  0  0
 16 18  1  0  0  0  0
 20 19  1  0  0  0  0
 21 20  1  0  0  0  0
 22 20  1  0  0  0  0
 23 22  1  0  0  0  0
 24 22  1  0  0  0  0
 25 26  1  0  0  0  0
 25 37  1  0  0  0  0
 27 25  1  0  0  0  0
 28 19  1  0  0  0  0
 29 28  1  0  0  0  0
 30 19  1  0  0  0  0
 31 20  1  0  0  0  0
 31 34  1  0  0  0  0
 32 31  1  0  0  0  0
 33 31  1  0  0  0  0
 34 25  1  0  0  0  0
 35 34  1  0  0  0  0
 36 34  1  0  0  0  0
 37 22  1  0  0  0  0
 38 37  1  0  0  0  0
 39 37  1  0  0  0  0
 40 28  1  0  0  0  0
 41 40  1  0  0  0  0
 42 40  1  0  0  0  0
 43 28  1  0  0  0  0
 44 43  1  0  0  0  0
 45 43  1  0  0  0  0
 46 47  1  0  0  0  0
 46 49  1  0  0  0  0
 46 52  1  0  0  0  0
 48 46  1  0  0  0  0
 49 43  1  0  0  0  0
 50 49  1  0  0  0  0
 51 49  1  0  0  0  0
 52 40  1  0  0  0  0
 53 52  1  0  0  0  0
 54 52  1  0  0  0  0
 55 30  2  0  0  0  0
 56 30  1  0  0  0  0
 57 55  1  0  0  0  0
 57 61  2  0  0  0  0
 58 55  1  0  0  0  0
 59 56  1  0  0  0  0
 60 56  2  0  0  0  0
 61 60  1  0  0  0  0
 62 60  1  0  0  0  0
 63 57  1  0  0  0  0
 64 61  1  0  0  0  0
 16 19  1  0  0  0  0
M  END
>  <DFT-ENERGY>
-2253.62927861

$$$$
