
  CDK     08132406593D

 58 62  0  0  0  0  0  0  0  0999 V2000
    1.1363   -0.5912   -3.9536 H   0  0  0  0  0  0  0  0  0  0  0  0
    2.3601   -0.7185   -3.9682 C   0  0  0  0  0  0  0  0  0  0  0  0
    2.2923   -0.5499   -5.0679 H   0  0  0  0  0  0  0  0  0  0  0  0
    2.7777    0.3400   -3.0068 C   0  0  0  0  0  0  0  0  0  0  0  0
    3.7209    0.1828   -2.4571 H   0  0  0  0  0  0  0  0  0  0  0  0
    2.5764    1.3820   -3.3104 H   0  0  0  0  0  0  0  0  0  0  0  0
    1.1934   -0.7073   -2.1846 Ru  0  0  0  0  0  0  0  0  0  0  0  0
    2.4195   -2.0525   -3.3708 C   0  0  0  0  0  0  0  0  0  0  0  0
    3.2998   -2.3477   -2.7875 H   0  0  0  0  0  0  0  0  0  0  0  0
    1.8806   -2.8663   -3.8855 H   0  0  0  0  0  0  0  0  0  0  0  0
    2.7020   -1.6122   -0.5198 Cl  0  0  0  0  0  0  0  0  0  0  0  0
   -0.5508    0.5496   -3.2777 Cl  0  0  0  0  0  0  0  0  0  0  0  0
    0.1996   -0.0506   -0.0826 P   0  0  0  0  0  0  0  0  0  0  0  0
   -0.8146   -1.5755    0.3307 C   0  0  0  0  0  0  0  0  0  0  0  0
   -1.7285   -1.2474    0.8745 H   0  0  0  0  0  0  0  0  0  0  0  0
   -1.2273   -2.1377   -1.0496 C   0  0  0  0  0  0  0  0  0  0  0  0
   -1.7792   -1.3823   -1.6424 H   0  0  0  0  0  0  0  0  0  0  0  0
   -0.2848   -2.3673   -1.6325 H   0  0  0  0  0  0  0  0  0  0  0  0
   -1.3245   -4.4805   -0.0736 C   0  0  0  0  0  0  0  0  0  0  0  0
   -0.3937   -4.8011   -0.5931 H   0  0  0  0  0  0  0  0  0  0  0  0
   -1.9562   -5.3864    0.0357 H   0  0  0  0  0  0  0  0  0  0  0  0
   -1.0467    1.3495   -0.2005 C   0  0  0  0  0  0  0  0  0  0  0  0
   -1.6912    1.0463   -1.0530 H   0  0  0  0  0  0  0  0  0  0  0  0
    1.2147    0.4784    1.3505 C   0  0  0  0  0  0  0  0  0  0  0  0
   -0.0911   -2.6463    1.1639 C   0  0  0  0  0  0  0  0  0  0  0  0
    0.8674   -2.9004    0.6672 H   0  0  0  0  0  0  0  0  0  0  0  0
    0.1747   -2.2502    2.1632 H   0  0  0  0  0  0  0  0  0  0  0  0
   -0.9581   -3.9060    1.3002 C   0  0  0  0  0  0  0  0  0  0  0  0
   -0.4179   -4.6626    1.9060 H   0  0  0  0  0  0  0  0  0  0  0  0
   -1.8921   -3.6634    1.8576 H   0  0  0  0  0  0  0  0  0  0  0  0
   -2.0432   -3.4309   -0.9278 C   0  0  0  0  0  0  0  0  0  0  0  0
   -3.0233   -3.1837   -0.4600 H   0  0  0  0  0  0  0  0  0  0  0  0
   -2.2698   -3.8261   -1.9396 H   0  0  0  0  0  0  0  0  0  0  0  0
   -0.3306    2.6562   -0.5855 C   0  0  0  0  0  0  0  0  0  0  0  0
    0.3564    2.9493    0.2391 H   0  0  0  0  0  0  0  0  0  0  0  0
    0.2859    2.4922   -1.4909 H   0  0  0  0  0  0  0  0  0  0  0  0
   -1.9157    1.5570    1.0494 C   0  0  0  0  0  0  0  0  0  0  0  0
   -1.2695    1.8408    1.9078 H   0  0  0  0  0  0  0  0  0  0  0  0
   -2.4404    0.6217    1.3352 H   0  0  0  0  0  0  0  0  0  0  0  0
   -2.2576    3.9842    0.3918 C   0  0  0  0  0  0  0  0  0  0  0  0
   -1.6447    4.3544    1.2448 H   0  0  0  0  0  0  0  0  0  0  0  0
   -3.0161    4.7679    0.1853 H   0  0  0  0  0  0  0  0  0  0  0  0
   -2.9430    2.6744    0.8009 C   0  0  0  0  0  0  0  0  0  0  0  0
   -3.6400    2.3554   -0.0063 H   0  0  0  0  0  0  0  0  0  0  0  0
   -3.5603    2.8242    1.7114 H   0  0  0  0  0  0  0  0  0  0  0  0
   -1.3506    3.7774   -0.8274 C   0  0  0  0  0  0  0  0  0  0  0  0
   -0.8215    4.7191   -1.0826 H   0  0  0  0  0  0  0  0  0  0  0  0
   -1.9699    3.5121   -1.7131 H   0  0  0  0  0  0  0  0  0  0  0  0
    2.4170    1.1695    1.1025 C   0  0  0  0  0  0  0  0  0  0  0  0
    0.7601    0.3304    2.6751 C   0  0  0  0  0  0  0  0  0  0  0  0
    3.1529    1.7048    2.1672 C   0  0  0  0  0  0  0  0  0  0  0  0
    2.7735    1.2659    0.0676 H   0  0  0  0  0  0  0  0  0  0  0  0
   -0.1821   -0.1952    2.8834 H   0  0  0  0  0  0  0  0  0  0  0  0
    1.5083    0.8562    3.7404 C   0  0  0  0  0  0  0  0  0  0  0  0
    2.7032    1.5451    3.4881 C   0  0  0  0  0  0  0  0  0  0  0  0
    1.1509    0.7273    4.7724 H   0  0  0  0  0  0  0  0  0  0  0  0
    4.0912    2.2413    1.9648 H   0  0  0  0  0  0  0  0  0  0  0  0
    3.2880    1.9570    4.3233 H   0  0  0  0  0  0  0  0  0  0  0  0
  1  2  1  0  0  0  0
  1  7  1  0  0  0  0
  2  3  1  0  0  0  0
  2  4  1  0  0  0  0
  4  5  1  0  0  0  0
  6  4  1  0  0  0  0
  7  8  1  0  0  0  0
  7  4  1  0  0  0  0
  8  2  1  0  0  0  0
  8  9  1  0  0  0  0
 10  8  1  0  0  0  0
  7 11  1  0  0  0  0
  7 12  1  0  0  0  0
 14 13  1  0  0  0  0
 15 14  1  0  0  0  0
 16 14  1  0  0  0  0
 17 16  1  0  0  0  0
 18 16  1  0  0  0  0
 19 20  1  0  0  0  0
 19 31  1  0  0  0  0
 21 19  1  0  0  0  0
 22 13  1  0  0  0  0
 23 22  1  0  0  0  0
 24 13  1  0  0  0  0
 25 14  1  0  0  0  0
 25 28  1  0  0  0  0
 26 25  1  0  0  0  0
 27 25  1  0  0  0  0
 28 19  1  0  0  0  0
 29 28  1  0  0  0  0
 30 28  1  0  0  0  0
 31 16  1  0  0  0  0
 32 31  1  0  0  0  0
 33 31  1  0  0  0  0
 34 22  1  0  0  0  0
 35 34  1  0  0  0  0
 36 34  1  0  0  0  0
 37 22  1  0  0  0  0
 38 37  1  0  0  0  0
 39 37  1  0  0  0  0
 40 41  1  0  0  0  0
 40 43  1  0  0  0  0
 40 46  1  0  0  0  0
 42 40  1  0  0  0  0
 43 37  1  0  0  0  0
 44 43  1  0  0  0  0
 45 43  1  0  0  0  0
 46 34  1  0  0  0  0
 47 46  1  0  0  0  0
 48 46  1  0  0  0  0
 49 24  2  0  0  0  0
 50 24  1  0  0  0  0
 51 49  1  0  0  0  0
 51 55  2  0  0  0  0
 52 49  1  0  0  0  0
 53 50  1  0  0  0  0
 54 50  2  0  0  0  0
 55 54  1  0  0  0  0
 56 54  1  0  0  0  0
 57 51  1  0  0  0  0
 58 55  1  0  0  0  0
  7 13  1  0  0  0  0
M  END
>  <DFT-ENERGY>
-2175.08189285

$$$$
