PhCyCyP-4_A1
  CDK     08122415523D

 72 76  0  0  0  0  0  0  0  0999 V2000
   -0.1157   -0.9336   -0.7839 Ru  0  0  0  0  0  0  0  0  0  0  0  0
   -0.2252   -2.7080   -2.1731 O   0  0  0  0  0  0  0  0  0  0  0  0
   -1.1218   -2.0840    0.2202 C   0  0  0  0  0  0  0  0  0  0  0  0
   -1.3998   -1.8336    1.2429 H   0  0  0  0  0  0  0  0  0  0  0  0
    0.5340   -2.9908   -3.3989 C   0  0  0  0  0  0  0  0  0  0  0  0
   -0.1861   -3.3533   -4.1626 H   0  0  0  0  0  0  0  0  0  0  0  0
    1.0652   -1.5984   -3.7154 C   0  0  0  0  0  0  0  0  0  0  0  0
    1.5566   -1.5616   -4.6914 H   0  0  0  0  0  0  0  0  0  0  0  0
    1.7958   -1.2675   -2.9524 H   0  0  0  0  0  0  0  0  0  0  0  0
    0.2388   -0.8589   -3.7181 H   0  0  0  0  0  0  0  0  0  0  0  0
    1.6201   -4.0000   -3.0710 C   0  0  0  0  0  0  0  0  0  0  0  0
    2.3850   -4.0452   -3.8527 H   0  0  0  0  0  0  0  0  0  0  0  0
    1.2262   -5.0103   -2.9191 H   0  0  0  0  0  0  0  0  0  0  0  0
    2.1296   -3.7140   -2.1301 H   0  0  0  0  0  0  0  0  0  0  0  0
   -1.0832   -3.6492   -1.6681 C   0  0  0  0  0  0  0  0  0  0  0  0
   -1.5033   -4.7946   -2.3211 C   0  0  0  0  0  0  0  0  0  0  0  0
   -1.1670   -5.0342   -3.3273 H   0  0  0  0  0  0  0  0  0  0  0  0
   -2.3883   -5.6429   -1.6636 C   0  0  0  0  0  0  0  0  0  0  0  0
   -2.7324   -6.5462   -2.1723 H   0  0  0  0  0  0  0  0  0  0  0  0
   -2.8437   -5.3643   -0.3783 C   0  0  0  0  0  0  0  0  0  0  0  0
   -3.5317   -6.0481    0.1161 H   0  0  0  0  0  0  0  0  0  0  0  0
   -2.4120   -4.2190    0.2633 C   0  0  0  0  0  0  0  0  0  0  0  0
   -2.7540   -4.0043    1.2746 H   0  0  0  0  0  0  0  0  0  0  0  0
   -1.5404   -3.3355   -0.3761 C   0  0  0  0  0  0  0  0  0  0  0  0
    2.0250   -1.6637   -0.2263 Cl  0  0  0  0  0  0  0  0  0  0  0  0
   -1.7731   -0.0039   -2.1475 Cl  0  0  0  0  0  0  0  0  0  0  0  0
   -0.0736    0.7410    0.6572 P   0  0  0  0  0  0  0  0  0  0  0  0
    0.9030    2.2058   -0.1141 C   0  0  0  0  0  0  0  0  0  0  0  0
    1.1952    2.9182    0.6931 H   0  0  0  0  0  0  0  0  0  0  0  0
    2.1670    1.6436   -0.7800 C   0  0  0  0  0  0  0  0  0  0  0  0
    2.8076    1.0944   -0.0579 H   0  0  0  0  0  0  0  0  0  0  0  0
    1.9136    0.9025   -1.5776 H   0  0  0  0  0  0  0  0  0  0  0  0
    2.1317    3.5769   -2.4230 C   0  0  0  0  0  0  0  0  0  0  0  0
    1.8893    2.9343   -3.2919 H   0  0  0  0  0  0  0  0  0  0  0  0
    2.7160    4.4257   -2.8239 H   0  0  0  0  0  0  0  0  0  0  0  0
    0.8454    0.3539    2.3083 C   0  0  0  0  0  0  0  0  0  0  0  0
    1.6993   -0.3282    2.0376 H   0  0  0  0  0  0  0  0  0  0  0  0
   -1.6780    1.5227    1.2313 C   0  0  0  0  0  0  0  0  0  0  0  0
    0.0331    2.9446   -1.1386 C   0  0  0  0  0  0  0  0  0  0  0  0
   -0.3190    2.2517   -1.9381 H   0  0  0  0  0  0  0  0  0  0  0  0
   -0.8840    3.3588   -0.6733 H   0  0  0  0  0  0  0  0  0  0  0  0
    0.8333    4.0893   -1.7839 C   0  0  0  0  0  0  0  0  0  0  0  0
    0.2104    4.5905   -2.5490 H   0  0  0  0  0  0  0  0  0  0  0  0
    1.0667    4.8597   -1.0253 H   0  0  0  0  0  0  0  0  0  0  0  0
    2.9786    2.7864   -1.4156 C   0  0  0  0  0  0  0  0  0  0  0  0
    3.3548    3.4643   -0.6264 H   0  0  0  0  0  0  0  0  0  0  0  0
    3.8743    2.3732   -1.9167 H   0  0  0  0  0  0  0  0  0  0  0  0
   -0.1074   -0.4032    3.2432 C   0  0  0  0  0  0  0  0  0  0  0  0
   -0.9883    0.2175    3.5094 H   0  0  0  0  0  0  0  0  0  0  0  0
   -0.5017   -1.3209    2.7517 H   0  0  0  0  0  0  0  0  0  0  0  0
    1.4219    1.5961    2.9973 C   0  0  0  0  0  0  0  0  0  0  0  0
    0.6219    2.3303    3.2377 H   0  0  0  0  0  0  0  0  0  0  0  0
    2.1455    2.1194    2.3396 H   0  0  0  0  0  0  0  0  0  0  0  0
    1.2139    0.4234    5.2417 C   0  0  0  0  0  0  0  0  0  0  0  0
    0.3993    1.0827    5.5975 H   0  0  0  0  0  0  0  0  0  0  0  0
    1.7706    0.1090    6.1442 H   0  0  0  0  0  0  0  0  0  0  0  0
    2.1416    1.2016    4.2994 C   0  0  0  0  0  0  0  0  0  0  0  0
    3.0312    0.5860    4.0604 H   0  0  0  0  0  0  0  0  0  0  0  0
    2.5228    2.1077    4.8055 H   0  0  0  0  0  0  0  0  0  0  0  0
    0.6207   -0.8043    4.5378 C   0  0  0  0  0  0  0  0  0  0  0  0
   -0.0785   -1.3293    5.2145 H   0  0  0  0  0  0  0  0  0  0  0  0
    1.4252   -1.5294    4.3049 H   0  0  0  0  0  0  0  0  0  0  0  0
   -2.8903    0.9752    0.8132 C   0  0  0  0  0  0  0  0  0  0  0  0
   -1.6553    2.6479    2.0603 C   0  0  0  0  0  0  0  0  0  0  0  0
   -4.0944    1.5678    1.2203 C   0  0  0  0  0  0  0  0  0  0  0  0
   -2.9353    0.0913    0.1605 H   0  0  0  0  0  0  0  0  0  0  0  0
   -0.7134    3.0783    2.4171 H   0  0  0  0  0  0  0  0  0  0  0  0
   -2.8571    3.2362    2.4650 C   0  0  0  0  0  0  0  0  0  0  0  0
   -4.0780    2.6972    2.0413 C   0  0  0  0  0  0  0  0  0  0  0  0
   -2.8450    4.1142    3.1078 H   0  0  0  0  0  0  0  0  0  0  0  0
   -5.0420    1.1472    0.8855 H   0  0  0  0  0  0  0  0  0  0  0  0
   -5.0140    3.1600    2.3523 H   0  0  0  0  0  0  0  0  0  0  0  0
  2  1  1  0  0  0  0
  3  1  2  0  0  0  0
  4  3  1  0  0  0  0
  5  2  1  0  0  0  0
  6  5  1  0  0  0  0
  7  5  1  0  0  0  0
  8  7  1  0  0  0  0
  9  7  1  0  0  0  0
 10  7  1  0  0  0  0
 11  5  1  0  0  0  0
 12 11  1  0  0  0  0
 13 11  1  0  0  0  0
 14 11  1  0  0  0  0
 15  2  1  0  0  0  0
 15 24  1  0  0  0  0
 16 15  2  0  0  0  0
 17 16  1  0  0  0  0
 18 16  1  0  0  0  0
 19 18  1  0  0  0  0
 20 18  2  0  0  0  0
 21 20  1  0  0  0  0
 22 20  1  0  0  0  0
 22 24  2  0  0  0  0
 23 22  1  0  0  0  0
 24  3  1  0  0  0  0
  1 25  1  0  0  0  0
  1 26  1  0  0  0  0
 28 27  1  0  0  0  0
 29 28  1  0  0  0  0
 30 28  1  0  0  0  0
 31 30  1  0  0  0  0
 32 30  1  0  0  0  0
 33 34  1  0  0  0  0
 33 45  1  0  0  0  0
 35 33  1  0  0  0  0
 36 27  1  0  0  0  0
 37 36  1  0  0  0  0
 38 27  1  0  0  0  0
 39 28  1  0  0  0  0
 39 42  1  0  0  0  0
 40 39  1  0  0  0  0
 41 39  1  0  0  0  0
 42 33  1  0  0  0  0
 43 42  1  0  0  0  0
 44 42  1  0  0  0  0
 45 30  1  0  0  0  0
 46 45  1  0  0  0  0
 47 45  1  0  0  0  0
 48 36  1  0  0  0  0
 49 48  1  0  0  0  0
 50 48  1  0  0  0  0
 51 36  1  0  0  0  0
 52 51  1  0  0  0  0
 53 51  1  0  0  0  0
 54 55  1  0  0  0  0
 54 57  1  0  0  0  0
 54 60  1  0  0  0  0
 56 54  1  0  0  0  0
 57 51  1  0  0  0  0
 58 57  1  0  0  0  0
 59 57  1  0  0  0  0
 60 48  1  0  0  0  0
 61 60  1  0  0  0  0
 62 60  1  0  0  0  0
 63 38  2  0  0  0  0
 64 38  1  0  0  0  0
 65 63  1  0  0  0  0
 65 69  2  0  0  0  0
 66 63  1  0  0  0  0
 67 64  1  0  0  0  0
 68 64  2  0  0  0  0
 69 68  1  0  0  0  0
 70 68  1  0  0  0  0
 71 65  1  0  0  0  0
 72 69  1  0  0  0  0
  1 27  1  0  0  0  0
M  END
> <FrozenCore-PM6_ENERGY>
312.772

> <RMSD_CONF_CG-CS>
0.316788

> <RMSD_CONF_GO-CS>
0.000000

> <UID>


> <DESCRIPTOR_DEFINITION_1>
desc1=( echo "1 * ( e( $hartree_to_kcalmol * ( ( $freeEnergyZ - $freeEnergyD ) - ( $freeEnergyX + 2*$G_Ethene - $freeEnergyD - 2*$G_Propene ) - $DDG_reference_HGII ) / $kT ) ) " | bc -l )

> <DESCRIPTOR_DEFINITION_2>
desc1=( echo "1 * ( e( $hartree_to_kcalmol * ( ( $freeEnergyZ - $freeEnergyD ) - ( $freeEnergyX + 2*$G_Ethene - $freeEnergyD - 2*$G_Propene ) - $DDG_reference_HGII ) / $kT ) ) " | bc -l )

> <DESCRIPTOR_DEFINITION_3>
desc1=( echo "1 * ( e( $hartree_to_kcalmol * ( ( $freeEnergyZ - $freeEnergyD ) - ( $freeEnergyX + 2*$G_Ethene - $freeEnergyD - 2*$G_Propene ) - $DDG_reference_HGII ) / $kT ) ) " | bc -l )

> <WEIGHT_DEFINITION_1>
w1=$( echo "1 / ( 1 + e( $hartree_to_kcalmol * ( ( ( $freeEnergyX + 2*$G_Ethene - $freeEnergyD - 2*$G_Propene ) ) - ( $DG_referenceProductionBarrier + $magnitude4 ) ) / $kT ) )" | bc -l )

> <WEIGHT_DEFINITION_2>
w1=$( echo "1 / ( 1 + e( $hartree_to_kcalmol * ( ( ( $freeEnergyX + 2*$G_Ethene - $freeEnergyD - 2*$G_Propene ) ) - ( $DG_referenceProductionBarrier + $magnitude4 ) ) / $kT ) )" | bc -l )

> <WEIGHT_DEFINITION_3>
w1=$( echo "1 / ( 1 + e( $hartree_to_kcalmol * ( ( ( $freeEnergyX + 2*$G_Ethene - $freeEnergyD - 2*$G_Propene ) ) - ( $DG_referenceProductionBarrier + $magnitude4 ) ) / $kT ) )" | bc -l )

> <WEIGHT_DEFINITION_4>
w1=$( echo "1 / ( 1 + e( $hartree_to_kcalmol * ( ( ( $freeEnergyX + 2*$G_Ethene - $freeEnergyD - 2*$G_Propene ) ) - ( $DG_referenceProductionBarrier + $magnitude4 ) ) / $kT ) )" | bc -l )

> <CALCULATION_OF_OVERALL_FITNESS>
fitness=$( echo "( $desc1 + $desc2 + $desc3 ) * ( $w1 * $w2 * $w3 * $w4 )" | bc -l )

> <freeEnergyA>
-2520.36678744

> <freeEnergyF>
-2520.34219943

> <freeEnergyE>
-2520.36678744

> <freeEnergyC>
-2175.09214041

> <freeEnergyL>
-1042.52374055

> <freeEnergyX>
-2253.62927859

> <freeEnergyZ>
-2175.08189295

> <freeEnergyD>
-2175.11636264

> <G_Propene>
-117.738020895

> <G_Ethene>
-78.4716324751

> <G_HoveydaProd>
-502.204109499

> <G_SIMes>
-924.27249048

> <G_HG_RuCl2_SIMes>
-2402.13728523

> <DG_referenceProductionBarrier>
0.01468968

> <DG_referencePrecursorStabilityHII>
-0.0052201621

> <DG_referencePrecursorStabilityHI>
0.0117775312

> <DDG_referencePrecursorStability>
.0169976933

> <DG_referenceSynt>
0.0226072217

> <hartree_to_kcalmol>
627.49467516

> <boltzmann_constant>
0.0000000000000000000000138066

> <avogadro_number>
602214000000000000000000

> <jmol_to_kcalmol>
0.00023901

> <temp>
313.15

> <kT>
.6223089948281258706000000000

> <magnitude1>
1.43290809

> <magnitude2>
2.86581618

> <magnitude3>
4.29872427

> <magnitude4>
5.73163236

> <DFT_IDENTIFIER>
1723537997139

> <DFT_MACHINE>
158.39.114.73

> <XTB_IDENTIFIER>
NREC

> <XTB_MACHINE>
NREC

> <DESCRIPTOR_1>
.00045920676796522255

> <DESCRIPTOR_2>
9.166944335976343032

> <DESCRIPTOR_3>
1.512597876786810600

> <WEIGHT_1>
.99999120122708590034

> <WEIGHT_2>
.56481894203212130816

> <WEIGHT_3>
.95965428527475321529

> <WEIGHT_4>
.99999999829170029906

> <FITNESS>
5.78884002998366956877

$$$$
