
  CDK     07262415083D

 65 68  0  0  0  0  0  0  0  0999 V2000
   -2.8685    0.7299   -2.1478 C   0  0  0  0  0  0  0  0  0  0  0  0
   -2.8663   -0.3016   -2.5417 H   0  0  0  0  0  0  0  0  0  0  0  0
   -3.7094    1.3028   -2.5990 H   0  0  0  0  0  0  0  0  0  0  0  0
   -1.9359    1.2314   -2.4838 H   0  0  0  0  0  0  0  0  0  0  0  0
   -3.0076    0.7716   -0.6442 C   0  0  0  0  0  0  0  0  0  0  0  0
   -3.1083    1.7811   -0.2044 H   0  0  0  0  0  0  0  0  0  0  0  0
   -3.5231   -0.2873    0.1506 C   0  0  0  0  0  0  0  0  0  0  0  0
   -3.6763   -1.2602   -0.3481 H   0  0  0  0  0  0  0  0  0  0  0  0
   -4.3734    0.0282    1.3610 C   0  0  0  0  0  0  0  0  0  0  0  0
   -4.4843   -0.8343    2.0449 H   0  0  0  0  0  0  0  0  0  0  0  0
   -5.3901    0.3097    1.0113 H   0  0  0  0  0  0  0  0  0  0  0  0
   -3.9544    0.8870    1.9215 H   0  0  0  0  0  0  0  0  0  0  0  0
   -1.7996   -1.0839    1.4850 C   0  0  0  0  0  0  0  0  0  0  0  0
   -2.0215   -0.6535    2.4849 H   0  0  0  0  0  0  0  0  0  0  0  0
   -1.9477   -2.1775    1.3473 H   0  0  0  0  0  0  0  0  0  0  0  0
   -1.1569   -0.0497    0.1228 Ru  0  0  0  0  0  0  0  0  0  0  0  0
   -1.2299    1.8631    1.5868 Cl  0  0  0  0  0  0  0  0  0  0  0  0
   -1.1851   -1.9805   -1.3140 Cl  0  0  0  0  0  0  0  0  0  0  0  0
    0.7358    2.6756   -1.8399 C   0  0  0  0  0  0  0  0  0  0  0  0
    1.0883    1.3136   -1.9612 C   0  0  0  0  0  0  0  0  0  0  0  0
    0.9561    0.5894   -3.1673 C   0  0  0  0  0  0  0  0  0  0  0  0
    0.3580    1.2522   -4.2516 C   0  0  0  0  0  0  0  0  0  0  0  0
   -0.0775    2.5875   -4.1597 C   0  0  0  0  0  0  0  0  0  0  0  0
    0.1376    3.2850   -2.9578 C   0  0  0  0  0  0  0  0  0  0  0  0
    1.6370    0.6374   -0.8128 N   0  0  0  0  0  0  0  0  0  0  0  0
    0.8594    0.0033    0.1250 C   0  0  0  0  0  0  0  0  0  0  0  0
    1.7456   -0.5380    1.0258 N   0  0  0  0  0  0  0  0  0  0  0  0
    3.0633   -0.2449    0.6468 C   0  0  0  0  0  0  0  0  0  0  0  0
    2.9950    0.4982   -0.5043 C   0  0  0  0  0  0  0  0  0  0  0  0
    1.3754   -1.2975    2.1922 C   0  0  0  0  0  0  0  0  0  0  0  0
    1.2492   -0.6209    3.4245 C   0  0  0  0  0  0  0  0  0  0  0  0
    0.8369   -1.3779    4.5329 C   0  0  0  0  0  0  0  0  0  0  0  0
    0.5709   -2.7570    4.4357 C   0  0  0  0  0  0  0  0  0  0  0  0
    0.7553   -3.3919    3.1957 C   0  0  0  0  0  0  0  0  0  0  0  0
    1.1681   -2.6844    2.0517 C   0  0  0  0  0  0  0  0  0  0  0  0
    1.5400    0.8492    3.5365 C   0  0  0  0  0  0  0  0  0  0  0  0
    0.1011   -3.5298    5.6426 C   0  0  0  0  0  0  0  0  0  0  0  0
    1.3759   -3.3740    0.7328 C   0  0  0  0  0  0  0  0  0  0  0  0
    1.4421   -0.8276   -3.2825 C   0  0  0  0  0  0  0  0  0  0  0  0
   -0.7681    3.2503   -5.3244 C   0  0  0  0  0  0  0  0  0  0  0  0
    1.0144    3.4472   -0.5810 C   0  0  0  0  0  0  0  0  0  0  0  0
    4.4220   -0.7774    1.5330 Cl  0  0  0  0  0  0  0  0  0  0  0  0
    4.2348    1.1815   -1.4591 Cl  0  0  0  0  0  0  0  0  0  0  0  0
    0.7248   -0.8705    5.5036 H   0  0  0  0  0  0  0  0  0  0  0  0
    0.5814   -4.4756    3.1104 H   0  0  0  0  0  0  0  0  0  0  0  0
    1.4554    1.1870    4.5860 H   0  0  0  0  0  0  0  0  0  0  0  0
    0.8211    1.4318    2.9210 H   0  0  0  0  0  0  0  0  0  0  0  0
    2.5628    1.0878    3.1790 H   0  0  0  0  0  0  0  0  0  0  0  0
   -0.9382   -3.2481    5.9140 H   0  0  0  0  0  0  0  0  0  0  0  0
    0.7325   -3.3183    6.5292 H   0  0  0  0  0  0  0  0  0  0  0  0
    0.1161   -4.6212    5.4605 H   0  0  0  0  0  0  0  0  0  0  0  0
    2.3657   -3.1247    0.2983 H   0  0  0  0  0  0  0  0  0  0  0  0
    0.6059   -3.0594   -0.0063 H   0  0  0  0  0  0  0  0  0  0  0  0
    1.3176   -4.4720    0.8506 H   0  0  0  0  0  0  0  0  0  0  0  0
    0.2333    0.7047   -5.1984 H   0  0  0  0  0  0  0  0  0  0  0  0
   -0.1548    4.3437   -2.8854 H   0  0  0  0  0  0  0  0  0  0  0  0
    1.3607   -1.1848   -4.3257 H   0  0  0  0  0  0  0  0  0  0  0  0
    0.8327   -1.4954   -2.6367 H   0  0  0  0  0  0  0  0  0  0  0  0
    2.5013   -0.9186   -2.9665 H   0  0  0  0  0  0  0  0  0  0  0  0
   -0.3572    2.9038   -6.2929 H   0  0  0  0  0  0  0  0  0  0  0  0
   -0.6776    4.3527   -5.2804 H   0  0  0  0  0  0  0  0  0  0  0  0
   -1.8524    3.0074   -5.3256 H   0  0  0  0  0  0  0  0  0  0  0  0
    2.0713    3.3294   -0.2658 H   0  0  0  0  0  0  0  0  0  0  0  0
    0.3765    3.0892    0.2563 H   0  0  0  0  0  0  0  0  0  0  0  0
    0.8172    4.5246   -0.7328 H   0  0  0  0  0  0  0  0  0  0  0  0
  1  2  1  0  0  0  0
  1  5  1  0  0  0  0
  3  1  1  0  0  0  0
  4  1  1  0  0  0  0
  5  6  1  0  0  0  0
  5 16  1  0  0  0  0
  5  7  1  0  0  0  0
  7  9  1  0  0  0  0
  7  8  1  0  0  0  0
  9 10  1  0  0  0  0
 11  9  1  0  0  0  0
 12  9  1  0  0  0  0
 13 14  1  0  0  0  0
 13 15  1  0  0  0  0
 13  7  1  0  0  0  0
 16 13  1  0  0  0  0
 16 17  1  0  0  0  0
 16 18  1  0  0  0  0
 19 20  2  0  0  0  0
 19 24  2  0  0  0  0
 19 41  1  0  0  0  0
 20 21  2  0  0  0  0
 20 25  1  0  0  0  0
 21 22  2  0  0  0  0
 21 39  1  0  0  0  0
 22 23  2  0  0  0  0
 22 55  1  0  0  0  0
 23 24  2  0  0  0  0
 23 40  1  0  0  0  0
 24 56  1  0  0  0  0
 25 26  1  0  0  0  0
 25 29  1  0  0  0  0
 26 27  1  0  0  0  0
 27 28  1  0  0  0  0
 27 30  1  0  0  0  0
 28 29  2  0  0  0  0
 28 42  1  0  0  0  0
 29 43  1  0  0  0  0
 30 31  2  0  0  0  0
 30 35  2  0  0  0  0
 31 32  2  0  0  0  0
 31 36  1  0  0  0  0
 32 33  2  0  0  0  0
 32 44  1  0  0  0  0
 33 34  2  0  0  0  0
 33 37  1  0  0  0  0
 34 35  2  0  0  0  0
 34 45  1  0  0  0  0
 35 38  1  0  0  0  0
 36 46  1  0  0  0  0
 36 47  1  0  0  0  0
 36 48  1  0  0  0  0
 37 49  1  0  0  0  0
 37 50  1  0  0  0  0
 37 51  1  0  0  0  0
 38 52  1  0  0  0  0
 38 53  1  0  0  0  0
 38 54  1  0  0  0  0
 39 57  1  0  0  0  0
 39 58  1  0  0  0  0
 39 59  1  0  0  0  0
 40 60  1  0  0  0  0
 40 61  1  0  0  0  0
 40 62  1  0  0  0  0
 41 63  1  0  0  0  0
 41 64  1  0  0  0  0
 41 65  1  0  0  0  0
 16 26  1  0  0  0  0
M  END
>  <DFT-ENERGY>
-3053.06925286

$$$$
