
  CDK     08142421483D

 73 76  0  0  0  0  0  0  0  0999 V2000
    0.5806    0.1912   -3.9395 H   0  0  0  0  0  0  0  0  0  0  0  0
    1.7880    0.4079   -4.0356 C   0  0  0  0  0  0  0  0  0  0  0  0
    1.7025    0.4878   -5.1394 H   0  0  0  0  0  0  0  0  0  0  0  0
    2.3276   -0.7956   -3.3381 C   0  0  0  0  0  0  0  0  0  0  0  0
    3.2984   -0.7037   -2.8258 H   0  0  0  0  0  0  0  0  0  0  0  0
    2.1307   -1.7666   -3.8219 H   0  0  0  0  0  0  0  0  0  0  0  0
    0.7756   -0.0158   -2.1886 Ru  0  0  0  0  0  0  0  0  0  0  0  0
    1.8181    1.5748   -3.1314 C   0  0  0  0  0  0  0  0  0  0  0  0
    2.7593    1.7905   -2.6082 H   0  0  0  0  0  0  0  0  0  0  0  0
    1.2041    2.4506   -3.4046 H   0  0  0  0  0  0  0  0  0  0  0  0
    2.4957    0.3863   -0.4947 Cl  0  0  0  0  0  0  0  0  0  0  0  0
   -0.6509   -1.6009   -3.3215 Cl  0  0  0  0  0  0  0  0  0  0  0  0
    0.0373   -0.5555   -0.3308 C   0  0  0  0  0  0  0  0  0  0  0  0
   -0.0724   -1.8741    1.8393 C   0  0  0  0  0  0  0  0  0  0  0  0
   -0.8636    0.5091    1.7880 C   0  0  0  0  0  0  0  0  0  0  0  0
   -1.2131   -0.9283    2.2025 C   0  0  0  0  0  0  0  0  0  0  0  0
   -0.5607    0.4764    0.2825 N   0  0  0  0  0  0  0  0  0  0  0  0
    0.0858   -1.9576    0.3106 C   0  0  0  0  0  0  0  0  0  0  0  0
   -0.2577   -2.8831    2.2514 H   0  0  0  0  0  0  0  0  0  0  0  0
   -1.4076   -0.9289    3.2942 H   0  0  0  0  0  0  0  0  0  0  0  0
    0.8766   -1.5267    2.2925 H   0  0  0  0  0  0  0  0  0  0  0  0
   -2.1548   -1.2454    1.7091 H   0  0  0  0  0  0  0  0  0  0  0  0
   -1.1392   -2.7487   -0.2999 C   0  0  0  0  0  0  0  0  0  0  0  0
    1.4161   -2.6496   -0.0842 C   0  0  0  0  0  0  0  0  0  0  0  0
    0.3909    0.9379    2.5893 C   0  0  0  0  0  0  0  0  0  0  0  0
    0.3222    0.5028    3.6064 H   0  0  0  0  0  0  0  0  0  0  0  0
    0.4538    2.0306    2.7080 H   0  0  0  0  0  0  0  0  0  0  0  0
    1.3241    0.5794    2.1169 H   0  0  0  0  0  0  0  0  0  0  0  0
   -2.0130    1.4697    2.0960 C   0  0  0  0  0  0  0  0  0  0  0  0
   -2.9852    1.1084    1.7206 H   0  0  0  0  0  0  0  0  0  0  0  0
   -1.8362    2.4743    1.6700 H   0  0  0  0  0  0  0  0  0  0  0  0
   -2.0895    1.5763    3.1960 H   0  0  0  0  0  0  0  0  0  0  0  0
   -0.8564    1.6239   -0.6011 C   0  0  0  0  0  0  0  0  0  0  0  0
   -1.5865    3.7721   -2.2929 C   0  0  0  0  0  0  0  0  0  0  0  0
   -1.9487    1.4691   -1.5284 C   0  0  0  0  0  0  0  0  0  0  0  0
   -0.1430    2.8655   -0.5297 C   0  0  0  0  0  0  0  0  0  0  0  0
   -0.5343    3.9089   -1.3886 C   0  0  0  0  0  0  0  0  0  0  0  0
   -2.2766    2.5639   -2.3551 C   0  0  0  0  0  0  0  0  0  0  0  0
    0.0133    4.8598   -1.3378 H   0  0  0  0  0  0  0  0  0  0  0  0
   -3.1081    2.4590   -3.0613 H   0  0  0  0  0  0  0  0  0  0  0  0
   -1.8714    4.6089   -2.9473 H   0  0  0  0  0  0  0  0  0  0  0  0
    1.0002    3.2005    0.4237 C   0  0  0  0  0  0  0  0  0  0  0  0
    1.3350    2.2643    0.8935 H   0  0  0  0  0  0  0  0  0  0  0  0
   -2.8270    0.2224   -1.6606 C   0  0  0  0  0  0  0  0  0  0  0  0
   -2.1617   -0.6541   -1.5845 H   0  0  0  0  0  0  0  0  0  0  0  0
   -3.9046    0.1167   -0.5684 C   0  0  0  0  0  0  0  0  0  0  0  0
   -4.5000    1.0498   -0.4888 H   0  0  0  0  0  0  0  0  0  0  0  0
   -3.4740   -0.1046    0.4242 H   0  0  0  0  0  0  0  0  0  0  0  0
   -4.6012   -0.7111   -0.8123 H   0  0  0  0  0  0  0  0  0  0  0  0
   -3.5013    0.1009   -3.0365 C   0  0  0  0  0  0  0  0  0  0  0  0
   -3.9227   -0.9182   -3.1392 H   0  0  0  0  0  0  0  0  0  0  0  0
   -2.7773    0.2401   -3.8604 H   0  0  0  0  0  0  0  0  0  0  0  0
   -4.3400    0.8181   -3.1594 H   0  0  0  0  0  0  0  0  0  0  0  0
    0.5329    4.2013    1.4998 C   0  0  0  0  0  0  0  0  0  0  0  0
   -0.3636    3.8589    2.0517 H   0  0  0  0  0  0  0  0  0  0  0  0
    0.2788    5.1796    1.0421 H   0  0  0  0  0  0  0  0  0  0  0  0
    1.3421    4.3784    2.2378 H   0  0  0  0  0  0  0  0  0  0  0  0
    2.2304    3.7837   -0.2925 C   0  0  0  0  0  0  0  0  0  0  0  0
    2.6095    3.0909   -1.0619 H   0  0  0  0  0  0  0  0  0  0  0  0
    3.0424    3.9418    0.4459 H   0  0  0  0  0  0  0  0  0  0  0  0
    2.0183    4.7659   -0.7622 H   0  0  0  0  0  0  0  0  0  0  0  0
    1.5301   -2.5370   -1.1826 H   0  0  0  0  0  0  0  0  0  0  0  0
    2.2435   -2.0616    0.3579 H   0  0  0  0  0  0  0  0  0  0  0  0
    1.5685   -4.1216    0.3014 C   0  0  0  0  0  0  0  0  0  0  0  0
    0.8688   -4.7815   -0.2485 H   0  0  0  0  0  0  0  0  0  0  0  0
    1.4224   -4.2983    1.3874 H   0  0  0  0  0  0  0  0  0  0  0  0
    2.5941   -4.4622    0.0546 H   0  0  0  0  0  0  0  0  0  0  0  0
   -1.9667   -2.0454   -0.5113 H   0  0  0  0  0  0  0  0  0  0  0  0
   -0.8277   -3.1218   -1.2920 H   0  0  0  0  0  0  0  0  0  0  0  0
   -1.7250   -3.8904    0.5398 C   0  0  0  0  0  0  0  0  0  0  0  0
   -2.4884   -4.4194   -0.0665 H   0  0  0  0  0  0  0  0  0  0  0  0
   -2.2364   -3.5333    1.4567 H   0  0  0  0  0  0  0  0  0  0  0  0
   -0.9724   -4.6398    0.8474 H   0  0  0  0  0  0  0  0  0  0  0  0
  1  2  1  0  0  0  0
  1  7  1  0  0  0  0
  2  3  1  0  0  0  0
  2  4  1  0  0  0  0
  4  5  1  0  0  0  0
  6  4  1  0  0  0  0
  7  8  1  0  0  0  0
  7  4  1  0  0  0  0
  8  2  1  0  0  0  0
  8  9  1  0  0  0  0
 10  8  1  0  0  0  0
  7 11  1  0  0  0  0
  7 12  1  0  0  0  0
 13 17  1  0  0  0  0
 13 18  1  0  0  0  0
 14 19  1  0  0  0  0
 14 21  1  0  0  0  0
 14 16  1  0  0  0  0
 14 18  1  0  0  0  0
 15 17  1  0  0  0  0
 15 16  1  0  0  0  0
 16 20  1  0  0  0  0
 16 22  1  0  0  0  0
 18 23  1  0  0  0  0
 18 24  1  0  0  0  0
 25 26  1  0  0  0  0
 25 27  1  0  0  0  0
 25 28  1  0  0  0  0
 15 25  1  0  0  0  0
 29 30  1  0  0  0  0
 29 31  1  0  0  0  0
 29 32  1  0  0  0  0
 15 29  1  0  0  0  0
 33 36  2  0  0  0  0
 36 37  1  0  0  0  0
 34 37  2  0  0  0  0
 34 38  1  0  0  0  0
 35 38  2  0  0  0  0
 33 35  1  0  0  0  0
 37 39  1  0  0  0  0
 38 40  1  0  0  0  0
 34 41  1  0  0  0  0
 17 33  1  0  0  0  0
 42 43  1  0  0  0  0
 36 42  1  0  0  0  0
 44 45  1  0  0  0  0
 35 44  1  0  0  0  0
 46 47  1  0  0  0  0
 46 48  1  0  0  0  0
 46 49  1  0  0  0  0
 44 46  1  0  0  0  0
 50 51  1  0  0  0  0
 50 52  1  0  0  0  0
 50 53  1  0  0  0  0
 44 50  1  0  0  0  0
 54 55  1  0  0  0  0
 54 56  1  0  0  0  0
 54 57  1  0  0  0  0
 42 54  1  0  0  0  0
 58 59  1  0  0  0  0
 58 60  1  0  0  0  0
 58 61  1  0  0  0  0
 42 58  1  0  0  0  0
 24 62  1  0  0  0  0
 24 63  1  0  0  0  0
 64 65  1  0  0  0  0
 64 66  1  0  0  0  0
 64 67  1  0  0  0  0
 24 64  1  0  0  0  0
 23 68  1  0  0  0  0
 23 69  1  0  0  0  0
 70 71  1  0  0  0  0
 70 72  1  0  0  0  0
 70 73  1  0  0  0  0
 23 70  1  0  0  0  0
  7 13  1  0  0  0  0
M  END
>  <DFT-ENERGY>
-2084.8160865

$$$$
