
  CDK     08162419413D

 67 70  0  0  0  0  0  0  0  0999 V2000
   -1.4790   -0.2045   -3.1851 C   0  0  0  0  0  0  0  0  0  0  0  0
   -1.9005    0.8160   -3.1884 H   0  0  0  0  0  0  0  0  0  0  0  0
   -1.8080   -0.7488   -4.0990 H   0  0  0  0  0  0  0  0  0  0  0  0
   -1.9084   -0.7533   -2.3214 H   0  0  0  0  0  0  0  0  0  0  0  0
    0.0311   -0.2040   -3.1472 C   0  0  0  0  0  0  0  0  0  0  0  0
    0.5023   -1.1989   -3.2518 H   0  0  0  0  0  0  0  0  0  0  0  0
    0.8496    0.8876   -3.5442 C   0  0  0  0  0  0  0  0  0  0  0  0
    0.3454    1.8576   -3.6993 H   0  0  0  0  0  0  0  0  0  0  0  0
    2.1359    0.6333   -4.2975 C   0  0  0  0  0  0  0  0  0  0  0  0
    2.8041    1.5150   -4.3156 H   0  0  0  0  0  0  0  0  0  0  0  0
    1.8806    0.3856   -5.3505 H   0  0  0  0  0  0  0  0  0  0  0  0
    2.6803   -0.2297   -3.8654 H   0  0  0  0  0  0  0  0  0  0  0  0
    1.9977    1.6500   -1.6770 C   0  0  0  0  0  0  0  0  0  0  0  0
    3.0324    1.2764   -1.8322 H   0  0  0  0  0  0  0  0  0  0  0  0
    1.8263    2.7422   -1.7973 H   0  0  0  0  0  0  0  0  0  0  0  0
    0.6321    0.5326   -1.1825 Ru  0  0  0  0  0  0  0  0  0  0  0  0
    2.2523   -1.4218   -1.2289 Br  0  0  0  0  0  0  0  0  0  0  0  0
   -0.9598    2.5108   -1.2566 Br  0  0  0  0  0  0  0  0  0  0  0  0
   -0.4129   -0.4178    1.4392 N   0  0  0  0  0  0  0  0  0  0  0  0
    1.3640    0.8473    1.7607 N   0  0  0  0  0  0  0  0  0  0  0  0
    0.5277    0.3426    0.8174 C   0  0  0  0  0  0  0  0  0  0  0  0
   -0.3124   -0.3506    2.9091 C   0  0  0  0  0  0  0  0  0  0  0  0
    1.0463    0.3432    3.1132 C   0  0  0  0  0  0  0  0  0  0  0  0
   -0.3506   -1.3653    3.3514 H   0  0  0  0  0  0  0  0  0  0  0  0
   -1.1564    0.2418    3.3218 H   0  0  0  0  0  0  0  0  0  0  0  0
    1.0028    1.1805    3.8368 H   0  0  0  0  0  0  0  0  0  0  0  0
    1.8329   -0.3655    3.4466 H   0  0  0  0  0  0  0  0  0  0  0  0
   -1.5698   -0.9241    0.7540 C   0  0  0  0  0  0  0  0  0  0  0  0
   -1.5448   -2.2528    0.2647 C   0  0  0  0  0  0  0  0  0  0  0  0
   -2.6640   -2.7101   -0.4538 C   0  0  0  0  0  0  0  0  0  0  0  0
   -3.7923   -1.8989   -0.6694 C   0  0  0  0  0  0  0  0  0  0  0  0
   -3.8081   -0.6122   -0.1030 C   0  0  0  0  0  0  0  0  0  0  0  0
   -2.7193   -0.1068    0.6272 C   0  0  0  0  0  0  0  0  0  0  0  0
   -2.6517   -3.7372   -0.8503 H   0  0  0  0  0  0  0  0  0  0  0  0
   -4.6969    0.0248   -0.2312 H   0  0  0  0  0  0  0  0  0  0  0  0
   -0.3737   -3.1585    0.5261 C   0  0  0  0  0  0  0  0  0  0  0  0
   -0.1058   -3.1717    1.6025 H   0  0  0  0  0  0  0  0  0  0  0  0
    0.5309   -2.8184   -0.0230 H   0  0  0  0  0  0  0  0  0  0  0  0
   -0.6041   -4.1950    0.2160 H   0  0  0  0  0  0  0  0  0  0  0  0
   -4.9491   -2.3892   -1.5025 C   0  0  0  0  0  0  0  0  0  0  0  0
   -4.8197   -2.0903   -2.5650 H   0  0  0  0  0  0  0  0  0  0  0  0
   -5.9110   -1.9609   -1.1592 H   0  0  0  0  0  0  0  0  0  0  0  0
   -5.0301   -3.4934   -1.4804 H   0  0  0  0  0  0  0  0  0  0  0  0
   -2.8184    1.2351    1.3030 C   0  0  0  0  0  0  0  0  0  0  0  0
   -3.5184    1.8966    0.7606 H   0  0  0  0  0  0  0  0  0  0  0  0
   -1.8448    1.7553    1.3394 H   0  0  0  0  0  0  0  0  0  0  0  0
   -3.2021    1.1153    2.3403 H   0  0  0  0  0  0  0  0  0  0  0  0
    2.5287    1.6447    1.5061 C   0  0  0  0  0  0  0  0  0  0  0  0
    3.8017    1.0342    1.4376 C   0  0  0  0  0  0  0  0  0  0  0  0
    4.9080    1.8519    1.1448 C   0  0  0  0  0  0  0  0  0  0  0  0
    4.7811    3.2372    0.9470 C   0  0  0  0  0  0  0  0  0  0  0  0
    3.5071    3.8159    1.0870 C   0  0  0  0  0  0  0  0  0  0  0  0
    2.3685    3.0449    1.3764 C   0  0  0  0  0  0  0  0  0  0  0  0
    5.9022    1.3841    1.0709 H   0  0  0  0  0  0  0  0  0  0  0  0
    3.3917    4.9056    0.9766 H   0  0  0  0  0  0  0  0  0  0  0  0
    3.9916   -0.4356    1.7017 C   0  0  0  0  0  0  0  0  0  0  0  0
    4.0419   -0.6380    2.7940 H   0  0  0  0  0  0  0  0  0  0  0  0
    4.9393   -0.7943    1.2581 H   0  0  0  0  0  0  0  0  0  0  0  0
    3.1723   -1.0361    1.2628 H   0  0  0  0  0  0  0  0  0  0  0  0
    5.9767    4.0831    0.5867 C   0  0  0  0  0  0  0  0  0  0  0  0
    5.9184    5.0884    1.0488 H   0  0  0  0  0  0  0  0  0  0  0  0
    6.0375    4.2343   -0.5124 H   0  0  0  0  0  0  0  0  0  0  0  0
    6.9246    3.6082    0.9058 H   0  0  0  0  0  0  0  0  0  0  0  0
    1.0224    3.6916    1.5470 C   0  0  0  0  0  0  0  0  0  0  0  0
    1.1219    4.7898    1.6355 H   0  0  0  0  0  0  0  0  0  0  0  0
    0.5015    3.3167    2.4519 H   0  0  0  0  0  0  0  0  0  0  0  0
    0.3567    3.4705    0.6831 H   0  0  0  0  0  0  0  0  0  0  0  0
  1  2  1  0  0  0  0
  1  5  1  0  0  0  0
  1  3  1  0  0  0  0
  1  4  1  0  0  0  0
  5  6  1  0  0  0  0
  5 16  1  0  0  0  0
  5  7  1  0  0  0  0
  7  9  1  0  0  0  0
  7  8  1  0  0  0  0
  9 10  1  0  0  0  0
  9 11  1  0  0  0  0
  9 12  1  0  0  0  0
 13 14  1  0  0  0  0
 13 15  1  0  0  0  0
  7 13  1  0  0  0  0
 13 16  1  0  0  0  0
 16 17  1  0  0  0  0
 16 18  1  0  0  0  0
 19 21  1  0  0  0  0
 20 21  1  0  0  0  0
 19 22  1  0  0  0  0
 20 23  1  0  0  0  0
 22 24  1  0  0  0  0
 22 25  1  0  0  0  0
 23 26  1  0  0  0  0
 23 27  1  0  0  0  0
 22 23  1  0  0  0  0
 28 29  2  0  0  0  0
 29 30  1  0  0  0  0
 30 31  2  0  0  0  0
 31 32  1  0  0  0  0
 28 33  1  0  0  0  0
 30 34  1  0  0  0  0
 32 35  1  0  0  0  0
 32 33  2  0  0  0  0
 19 28  1  0  0  0  0
 36 37  1  0  0  0  0
 36 38  1  0  0  0  0
 36 39  1  0  0  0  0
 29 36  1  0  0  0  0
 40 41  1  0  0  0  0
 40 42  1  0  0  0  0
 40 43  1  0  0  0  0
 31 40  1  0  0  0  0
 44 45  1  0  0  0  0
 44 46  1  0  0  0  0
 44 47  1  0  0  0  0
 33 44  1  0  0  0  0
 48 49  2  0  0  0  0
 49 50  1  0  0  0  0
 50 51  2  0  0  0  0
 51 52  1  0  0  0  0
 48 53  1  0  0  0  0
 50 54  1  0  0  0  0
 52 55  1  0  0  0  0
 52 53  2  0  0  0  0
 20 48  1  0  0  0  0
 56 57  1  0  0  0  0
 56 58  1  0  0  0  0
 56 59  1  0  0  0  0
 49 56  1  0  0  0  0
 60 61  1  0  0  0  0
 60 62  1  0  0  0  0
 60 63  1  0  0  0  0
 51 60  1  0  0  0  0
 64 65  1  0  0  0  0
 64 66  1  0  0  0  0
 64 67  1  0  0  0  0
 53 64  1  0  0  0  0
 16 21  1  0  0  0  0
M  END
>  <DFT-ENERGY>
-6362.87789292

$$$$
