SIMesBr-4_A2
  CDK     08162410463D

 75 79  0  0  0  0  0  0  0  0999 V2000
    0.6619   -0.5991    0.7044 Ru  0  0  0  0  0  0  0  0  0  0  0  0
    2.0511   -0.5991    2.4822 O   0  0  0  0  0  0  0  0  0  0  0  0
   -0.3422    0.3342    1.9146 C   0  0  0  0  0  0  0  0  0  0  0  0
   -1.3649    0.6271    1.6818 H   0  0  0  0  0  0  0  0  0  0  0  0
    3.2769   -1.3743    2.7177 C   0  0  0  0  0  0  0  0  0  0  0  0
    4.0419   -0.6649    3.0994 H   0  0  0  0  0  0  0  0  0  0  0  0
    3.5689   -1.8423    1.2989 C   0  0  0  0  0  0  0  0  0  0  0  0
    4.5357   -2.3469    1.2235 H   0  0  0  0  0  0  0  0  0  0  0  0
    2.7910   -2.5442    0.9349 H   0  0  0  0  0  0  0  0  0  0  0  0
    3.5716   -0.9854    0.5941 H   0  0  0  0  0  0  0  0  0  0  0  0
    2.9638   -2.4999    3.6857 C   0  0  0  0  0  0  0  0  0  0  0  0
    3.7470   -3.2656    3.6832 H   0  0  0  0  0  0  0  0  0  0  0  0
    2.8317   -2.1518    4.7154 H   0  0  0  0  0  0  0  0  0  0  0  0
    2.0201   -3.0019    3.3980 H   0  0  0  0  0  0  0  0  0  0  0  0
    1.5461    0.1993    3.4744 C   0  0  0  0  0  0  0  0  0  0  0  0
    2.1991    0.5480    4.6435 C   0  0  0  0  0  0  0  0  0  0  0  0
    3.2062    0.1993    4.8619 H   0  0  0  0  0  0  0  0  0  0  0  0
    1.5416    1.3791    5.5447 C   0  0  0  0  0  0  0  0  0  0  0  0
    2.0509    1.6672    6.4678 H   0  0  0  0  0  0  0  0  0  0  0  0
    0.2563    1.8507    5.2947 C   0  0  0  0  0  0  0  0  0  0  0  0
   -0.2379    2.4961    6.0193 H   0  0  0  0  0  0  0  0  0  0  0  0
   -0.3853    1.4904    4.1250 C   0  0  0  0  0  0  0  0  0  0  0  0
   -1.3966    1.8450    3.9318 H   0  0  0  0  0  0  0  0  0  0  0  0
    0.2541    0.6750    3.1895 C   0  0  0  0  0  0  0  0  0  0  0  0
   -0.1671   -2.8497    1.4072 Br  0  0  0  0  0  0  0  0  0  0  0  0
    1.9346    1.3721   -0.1348 Br  0  0  0  0  0  0  0  0  0  0  0  0
   -1.6880   -0.0155   -1.2410 N   0  0  0  0  0  0  0  0  0  0  0  0
   -0.0476   -1.2720   -2.0700 N   0  0  0  0  0  0  0  0  0  0  0  0
   -0.4719   -0.5997   -0.9244 C   0  0  0  0  0  0  0  0  0  0  0  0
   -2.1260   -0.2687   -2.6626 C   0  0  0  0  0  0  0  0  0  0  0  0
   -0.9906   -1.1349   -3.2356 C   0  0  0  0  0  0  0  0  0  0  0  0
   -2.2442    0.6929   -3.2009 H   0  0  0  0  0  0  0  0  0  0  0  0
   -3.1065   -0.7849   -2.6727 H   0  0  0  0  0  0  0  0  0  0  0  0
   -1.3372   -2.1343   -3.5670 H   0  0  0  0  0  0  0  0  0  0  0  0
   -0.4733   -0.6551   -4.0906 H   0  0  0  0  0  0  0  0  0  0  0  0
   -2.5808    0.7760   -0.4333 C   0  0  0  0  0  0  0  0  0  0  0  0
   -2.5026    2.1885   -0.4728 C   0  0  0  0  0  0  0  0  0  0  0  0
   -3.4468    2.9402    0.2400 C   0  0  0  0  0  0  0  0  0  0  0  0
   -4.4525    2.3115    0.9844 C   0  0  0  0  0  0  0  0  0  0  0  0
   -4.5094    0.9101    1.0335 C   0  0  0  0  0  0  0  0  0  0  0  0
   -3.5825    0.1299    0.3344 C   0  0  0  0  0  0  0  0  0  0  0  0
   -3.3930    4.0269    0.2126 H   0  0  0  0  0  0  0  0  0  0  0  0
   -5.2841    0.4236    1.6228 H   0  0  0  0  0  0  0  0  0  0  0  0
   -1.4296    2.8774   -1.2433 C   0  0  0  0  0  0  0  0  0  0  0  0
   -1.5032    2.6813   -2.3206 H   0  0  0  0  0  0  0  0  0  0  0  0
   -0.4271    2.5230   -0.9249 H   0  0  0  0  0  0  0  0  0  0  0  0
   -1.4316    3.9661   -1.1061 H   0  0  0  0  0  0  0  0  0  0  0  0
   -5.4641    3.1189    1.7301 C   0  0  0  0  0  0  0  0  0  0  0  0
   -5.4512    2.8831    2.8044 H   0  0  0  0  0  0  0  0  0  0  0  0
   -6.4820    2.9137    1.3669 H   0  0  0  0  0  0  0  0  0  0  0  0
   -5.3012    4.2007    1.6365 H   0  0  0  0  0  0  0  0  0  0  0  0
   -3.6366   -1.3571    0.4191 C   0  0  0  0  0  0  0  0  0  0  0  0
   -4.3967   -1.7216    1.1213 H   0  0  0  0  0  0  0  0  0  0  0  0
   -2.6650   -1.7688    0.7636 H   0  0  0  0  0  0  0  0  0  0  0  0
   -3.8420   -1.8175   -0.5562 H   0  0  0  0  0  0  0  0  0  0  0  0
    1.1416   -2.0628   -2.2746 C   0  0  0  0  0  0  0  0  0  0  0  0
    2.3131   -1.4584   -2.7945 C   0  0  0  0  0  0  0  0  0  0  0  0
    3.4488   -2.2508   -3.0144 C   0  0  0  0  0  0  0  0  0  0  0  0
    3.4284   -3.6278   -2.7592 C   0  0  0  0  0  0  0  0  0  0  0  0
    2.2480   -4.2272   -2.3019 C   0  0  0  0  0  0  0  0  0  0  0  0
    1.0943   -3.4652   -2.0706 C   0  0  0  0  0  0  0  0  0  0  0  0
    4.3558   -1.7851   -3.3948 H   0  0  0  0  0  0  0  0  0  0  0  0
    2.2197   -5.3007   -2.1258 H   0  0  0  0  0  0  0  0  0  0  0  0
    2.3817   -0.0136   -3.1583 C   0  0  0  0  0  0  0  0  0  0  0  0
    1.4820    0.5554   -2.8806 H   0  0  0  0  0  0  0  0  0  0  0  0
    2.5407    0.1188   -4.2365 H   0  0  0  0  0  0  0  0  0  0  0  0
    3.2183    0.4876   -2.6405 H   0  0  0  0  0  0  0  0  0  0  0  0
    4.6478   -4.4551   -3.0061 C   0  0  0  0  0  0  0  0  0  0  0  0
    4.6891   -4.7810   -4.0564 H   0  0  0  0  0  0  0  0  0  0  0  0
    4.6728   -5.3609   -2.3855 H   0  0  0  0  0  0  0  0  0  0  0  0
    5.5742   -3.9008   -2.8031 H   0  0  0  0  0  0  0  0  0  0  0  0
   -0.1517   -4.1763   -1.6601 C   0  0  0  0  0  0  0  0  0  0  0  0
    0.0357   -4.8479   -0.8047 H   0  0  0  0  0  0  0  0  0  0  0  0
   -0.5443   -4.7915   -2.4801 H   0  0  0  0  0  0  0  0  0  0  0  0
   -0.9549   -3.5004   -1.3307 H   0  0  0  0  0  0  0  0  0  0  0  0
  1  2  1  0  0  0  0
  1  3  2  0  0  0  0
  3  4  1  0  0  0  0
  2  5  1  0  0  0  0
  5  6  1  0  0  0  0
  5  7  1  0  0  0  0
  7  8  1  0  0  0  0
  7  9  1  0  0  0  0
  7 10  1  0  0  0  0
  5 11  1  0  0  0  0
 11 12  1  0  0  0  0
 11 13  1  0  0  0  0
 11 14  1  0  0  0  0
  2 15  1  0  0  0  0
 15 24  1  0  0  0  0
 15 16  2  0  0  0  0
 16 17  1  0  0  0  0
 16 18  1  0  0  0  0
 18 19  1  0  0  0  0
 18 20  2  0  0  0  0
 20 21  1  0  0  0  0
 20 22  1  0  0  0  0
 22 24  2  0  0  0  0
 22 23  1  0  0  0  0
  3 24  1  0  0  0  0
  1 25  1  0  0  0  0
  1 26  1  0  0  0  0
 27 29  1  0  0  0  0
 28 29  1  0  0  0  0
 27 30  1  0  0  0  0
 28 31  1  0  0  0  0
 30 32  1  0  0  0  0
 30 33  1  0  0  0  0
 31 34  1  0  0  0  0
 31 35  1  0  0  0  0
 30 31  1  0  0  0  0
  1 29  1  0  0  0  0
 36 37  2  0  0  0  0
 37 38  1  0  0  0  0
 38 39  2  0  0  0  0
 39 40  1  0  0  0  0
 36 41  1  0  0  0  0
 38 42  1  0  0  0  0
 40 43  1  0  0  0  0
 40 41  2  0  0  0  0
 27 36  1  0  0  0  0
 44 45  1  0  0  0  0
 44 46  1  0  0  0  0
 44 47  1  0  0  0  0
 37 44  1  0  0  0  0
 48 49  1  0  0  0  0
 48 50  1  0  0  0  0
 48 51  1  0  0  0  0
 39 48  1  0  0  0  0
 52 53  1  0  0  0  0
 52 54  1  0  0  0  0
 52 55  1  0  0  0  0
 41 52  1  0  0  0  0
 56 57  2  0  0  0  0
 57 58  1  0  0  0  0
 58 59  2  0  0  0  0
 59 60  1  0  0  0  0
 56 61  1  0  0  0  0
 58 62  1  0  0  0  0
 60 63  1  0  0  0  0
 60 61  2  0  0  0  0
 28 56  1  0  0  0  0
 64 65  1  0  0  0  0
 64 66  1  0  0  0  0
 64 67  1  0  0  0  0
 57 64  1  0  0  0  0
 68 69  1  0  0  0  0
 68 70  1  0  0  0  0
 68 71  1  0  0  0  0
 59 68  1  0  0  0  0
 72 73  1  0  0  0  0
 72 74  1  0  0  0  0
 72 75  1  0  0  0  0
 61 72  1  0  0  0  0
M  END
> <FrozenCore-PM6_ENERGY>
59.219

> <RMSD_CONF_CG-CS>
3.000124

> <RMSD_CONF_GO-CS>
0.000000

> <UID>


> <DESCRIPTOR_DEFINITION_1>
desc1=( echo "1 * ( e( $hartree_to_kcalmol * ( ( $freeEnergyZ - $freeEnergyD ) - ( $freeEnergyX + 2*$G_Ethene - $freeEnergyD - 2*$G_Propene ) - $DDG_reference_HGII ) / $kT ) ) " | bc -l )

> <DESCRIPTOR_DEFINITION_2>
desc1=( echo "1 * ( e( $hartree_to_kcalmol * ( ( $freeEnergyZ - $freeEnergyD ) - ( $freeEnergyX + 2*$G_Ethene - $freeEnergyD - 2*$G_Propene ) - $DDG_reference_HGII ) / $kT ) ) " | bc -l )

> <DESCRIPTOR_DEFINITION_3>
desc1=( echo "1 * ( e( $hartree_to_kcalmol * ( ( $freeEnergyZ - $freeEnergyD ) - ( $freeEnergyX + 2*$G_Ethene - $freeEnergyD - 2*$G_Propene ) - $DDG_reference_HGII ) / $kT ) ) " | bc -l )

> <WEIGHT_DEFINITION_1>
w1=$( echo "1 / ( 1 + e( $hartree_to_kcalmol * ( ( ( $freeEnergyX + 2*$G_Ethene - $freeEnergyD - 2*$G_Propene ) ) - ( $DG_referenceProductionBarrier + $magnitude4 ) ) / $kT ) )" | bc -l )

> <WEIGHT_DEFINITION_2>
w1=$( echo "1 / ( 1 + e( $hartree_to_kcalmol * ( ( ( $freeEnergyX + 2*$G_Ethene - $freeEnergyD - 2*$G_Propene ) ) - ( $DG_referenceProductionBarrier + $magnitude4 ) ) / $kT ) )" | bc -l )

> <WEIGHT_DEFINITION_3>
w1=$( echo "1 / ( 1 + e( $hartree_to_kcalmol * ( ( ( $freeEnergyX + 2*$G_Ethene - $freeEnergyD - 2*$G_Propene ) ) - ( $DG_referenceProductionBarrier + $magnitude4 ) ) / $kT ) )" | bc -l )

> <WEIGHT_DEFINITION_4>
w1=$( echo "1 / ( 1 + e( $hartree_to_kcalmol * ( ( ( $freeEnergyX + 2*$G_Ethene - $freeEnergyD - 2*$G_Propene ) ) - ( $DG_referenceProductionBarrier + $magnitude4 ) ) / $kT ) )" | bc -l )

> <CALCULATION_OF_OVERALL_FITNESS>
fitness=$( echo "( $desc1 + $desc2 + $desc3 ) * ( $w1 * $w2 * $w3 * $w4 )" | bc -l )

> <freeEnergyA>
-6629.60247797

> <freeEnergyF>
-6629.58838161

> <freeEnergyE>
-2402.13788966

> <freeEnergyC>
-6284.34730702

> <freeEnergyL>
-924.272484304

> <freeEnergyX>
-6362.87789282

> <freeEnergyZ>
-6284.32603144

> <freeEnergyD>
-6284.36877189

> <G_Propene>
-117.738020895

> <G_Ethene>
-78.4716324751

> <G_HoveydaProd>
-502.204109499

> <G_SIMes>
-924.27249048

> <G_HG_RuCl2_SIMes>
-2402.13728523

> <DG_referenceProductionBarrier>
0.01468968

> <DG_referencePrecursorStabilityHII>
-0.0052201621

> <DG_referencePrecursorStabilityHI>
0.0117775312

> <DDG_referencePrecursorStability>
.0169976933

> <DG_referenceSynt>
0.0226072217

> <hartree_to_kcalmol>
627.49467516

> <boltzmann_constant>
0.0000000000000000000000138066

> <avogadro_number>
602214000000000000000000

> <jmol_to_kcalmol>
0.00023901

> <temp>
313.15

> <kT>
.6223089948281258706000000000

> <magnitude1>
1.43290809

> <magnitude2>
2.86581618

> <magnitude3>
4.29872427

> <magnitude4>
5.73163236

> <DFT_IDENTIFIER>
1724061573928

> <DFT_MACHINE>
158.39.114.73

> <XTB_IDENTIFIER>
NREC

> <XTB_MACHINE>
NREC

> <DESCRIPTOR_1>
.04187887395972709483

> <DESCRIPTOR_2>
11.975447353376961432

> <DESCRIPTOR_3>
0.0000000001

> <WEIGHT_1>
.99959622370971489746

> <WEIGHT_2>
.99999999431074338761

> <WEIGHT_3>
.99999999999319842066

> <WEIGHT_4>
.99993286183201587000

> <FITNESS>
12.01166735212259203512

$$$$
