
  CDK     08172404263D

 61 65  0  0  0  0  0  0  0  0999 V2000
    0.4645   -0.5987   -3.4286 H   0  0  0  0  0  0  0  0  0  0  0  0
    1.6698   -0.3567   -3.4789 C   0  0  0  0  0  0  0  0  0  0  0  0
    1.5111   -0.2430   -4.5756 H   0  0  0  0  0  0  0  0  0  0  0  0
    1.7683    0.8011   -2.5464 C   0  0  0  0  0  0  0  0  0  0  0  0
    2.7353    0.9590   -2.0407 H   0  0  0  0  0  0  0  0  0  0  0  0
    1.2400    1.7218   -2.8469 H   0  0  0  0  0  0  0  0  0  0  0  0
    0.5994   -0.6675   -1.6613 Ru  0  0  0  0  0  0  0  0  0  0  0  0
    2.1639   -1.5948   -2.8851 C   0  0  0  0  0  0  0  0  0  0  0  0
    3.1066   -1.5901   -2.3253 H   0  0  0  0  0  0  0  0  0  0  0  0
    1.9002   -2.5430   -3.3831 H   0  0  0  0  0  0  0  0  0  0  0  0
    2.4402   -1.0720    0.0838 Br  0  0  0  0  0  0  0  0  0  0  0  0
   -1.5841    0.0070   -2.8151 Br  0  0  0  0  0  0  0  0  0  0  0  0
   -0.9150    1.0308    0.3945 N   0  0  0  0  0  0  0  0  0  0  0  0
   -0.6528   -1.0257    1.1362 N   0  0  0  0  0  0  0  0  0  0  0  0
   -0.3446   -0.1716    0.1142 C   0  0  0  0  0  0  0  0  0  0  0  0
   -1.5534    1.0462    1.7275 C   0  0  0  0  0  0  0  0  0  0  0  0
   -1.6684   -0.4427    2.0391 C   0  0  0  0  0  0  0  0  0  0  0  0
   -2.5308    1.5602    1.6886 H   0  0  0  0  0  0  0  0  0  0  0  0
   -0.8966    1.5869    2.4440 H   0  0  0  0  0  0  0  0  0  0  0  0
   -1.4602   -0.6840    3.0955 H   0  0  0  0  0  0  0  0  0  0  0  0
   -2.6669   -0.8541    1.7736 H   0  0  0  0  0  0  0  0  0  0  0  0
   -0.7419    2.2674   -0.3139 C   0  0  0  0  0  0  0  0  0  0  0  0
   -1.8569    2.8432   -0.9630 C   0  0  0  0  0  0  0  0  0  0  0  0
   -1.6693    4.0532   -1.6540 C   0  0  0  0  0  0  0  0  0  0  0  0
   -0.4268    4.7051   -1.6908 C   0  0  0  0  0  0  0  0  0  0  0  0
    0.6382    4.1419   -0.9648 C   0  0  0  0  0  0  0  0  0  0  0  0
    0.5034    2.9380   -0.2533 C   0  0  0  0  0  0  0  0  0  0  0  0
   -2.5276    4.4953   -2.1837 H   0  0  0  0  0  0  0  0  0  0  0  0
    1.6072    4.6643   -0.9323 H   0  0  0  0  0  0  0  0  0  0  0  0
   -3.2328    2.2324   -0.8887 C   0  0  0  0  0  0  0  0  0  0  0  0
   -3.8205    2.6923   -0.0633 H   0  0  0  0  0  0  0  0  0  0  0  0
   -3.1902    1.1403   -0.7293 H   0  0  0  0  0  0  0  0  0  0  0  0
   -3.7922    2.4114   -1.8265 H   0  0  0  0  0  0  0  0  0  0  0  0
   -0.2348    5.9724   -2.4851 C   0  0  0  0  0  0  0  0  0  0  0  0
    0.1906    5.7500   -3.4873 H   0  0  0  0  0  0  0  0  0  0  0  0
    0.4674    6.6665   -1.9821 H   0  0  0  0  0  0  0  0  0  0  0  0
   -1.1930    6.5036   -2.6458 H   0  0  0  0  0  0  0  0  0  0  0  0
    1.6375    2.4193    0.5864 C   0  0  0  0  0  0  0  0  0  0  0  0
    2.4763    3.1404    0.5982 H   0  0  0  0  0  0  0  0  0  0  0  0
    2.0171    1.4397    0.2316 H   0  0  0  0  0  0  0  0  0  0  0  0
    1.3176    2.2570    1.6374 H   0  0  0  0  0  0  0  0  0  0  0  0
   -0.2295   -2.3801    1.3165 C   0  0  0  0  0  0  0  0  0  0  0  0
   -0.4831   -3.3545    0.3258 C   0  0  0  0  0  0  0  0  0  0  0  0
   -0.1018   -4.6823    0.5770 C   0  0  0  0  0  0  0  0  0  0  0  0
    0.5210   -5.0651    1.7767 C   0  0  0  0  0  0  0  0  0  0  0  0
    0.7974   -4.0638    2.7220 C   0  0  0  0  0  0  0  0  0  0  0  0
    0.4485   -2.7196    2.5118 C   0  0  0  0  0  0  0  0  0  0  0  0
   -0.2967   -5.4402   -0.1980 H   0  0  0  0  0  0  0  0  0  0  0  0
    1.3346   -4.3288    3.6462 H   0  0  0  0  0  0  0  0  0  0  0  0
   -1.0577   -2.9707   -1.0016 C   0  0  0  0  0  0  0  0  0  0  0  0
   -1.8794   -2.2352   -0.9484 H   0  0  0  0  0  0  0  0  0  0  0  0
   -1.4017   -3.8533   -1.5735 H   0  0  0  0  0  0  0  0  0  0  0  0
   -0.2517   -2.5269   -1.6735 H   0  0  0  0  0  0  0  0  0  0  0  0
    0.8810   -6.5055    2.0388 C   0  0  0  0  0  0  0  0  0  0  0  0
    0.0168   -7.0630    2.4602 H   0  0  0  0  0  0  0  0  0  0  0  0
    1.7126   -6.5911    2.7651 H   0  0  0  0  0  0  0  0  0  0  0  0
    1.1805   -7.0258    1.1077 H   0  0  0  0  0  0  0  0  0  0  0  0
    0.8779   -1.6678    3.5016 C   0  0  0  0  0  0  0  0  0  0  0  0
    1.7482   -2.0238    4.0847 H   0  0  0  0  0  0  0  0  0  0  0  0
    0.0821   -1.4143    4.2357 H   0  0  0  0  0  0  0  0  0  0  0  0
    1.1743   -0.7388    2.9752 H   0  0  0  0  0  0  0  0  0  0  0  0
  1  2  1  0  0  0  0
  1  7  1  0  0  0  0
  2  3  1  0  0  0  0
  2  4  1  0  0  0  0
  4  5  1  0  0  0  0
  6  4  1  0  0  0  0
  7  8  1  0  0  0  0
  7  4  1  0  0  0  0
  8  2  1  0  0  0  0
  8  9  1  0  0  0  0
 10  8  1  0  0  0  0
  7 11  1  0  0  0  0
  7 12  1  0  0  0  0
 13 15  1  0  0  0  0
 14 15  1  0  0  0  0
 13 16  1  0  0  0  0
 14 17  1  0  0  0  0
 16 18  1  0  0  0  0
 16 19  1  0  0  0  0
 17 20  1  0  0  0  0
 17 21  1  0  0  0  0
 16 17  1  0  0  0  0
 22 23  2  0  0  0  0
 23 24  1  0  0  0  0
 24 25  2  0  0  0  0
 25 26  1  0  0  0  0
 22 27  1  0  0  0  0
 24 28  1  0  0  0  0
 26 29  1  0  0  0  0
 26 27  2  0  0  0  0
 13 22  1  0  0  0  0
 30 31  1  0  0  0  0
 30 32  1  0  0  0  0
 30 33  1  0  0  0  0
 23 30  1  0  0  0  0
 34 35  1  0  0  0  0
 34 36  1  0  0  0  0
 34 37  1  0  0  0  0
 25 34  1  0  0  0  0
 38 39  1  0  0  0  0
 38 40  1  0  0  0  0
 38 41  1  0  0  0  0
 27 38  1  0  0  0  0
 42 43  2  0  0  0  0
 43 44  1  0  0  0  0
 44 45  2  0  0  0  0
 45 46  1  0  0  0  0
 42 47  1  0  0  0  0
 44 48  1  0  0  0  0
 46 49  1  0  0  0  0
 46 47  2  0  0  0  0
 14 42  1  0  0  0  0
 50 51  1  0  0  0  0
 50 52  1  0  0  0  0
 50 53  1  0  0  0  0
 43 50  1  0  0  0  0
 54 55  1  0  0  0  0
 54 56  1  0  0  0  0
 54 57  1  0  0  0  0
 45 54  1  0  0  0  0
 58 59  1  0  0  0  0
 58 60  1  0  0  0  0
 58 61  1  0  0  0  0
 47 58  1  0  0  0  0
  7 15  1  0  0  0  0
M  END
>  <DFT-ENERGY>
-6284.3260332

$$$$
