
  CDK     02032408463D

 59 62  0  0  0  0  0  0  0  0999 V2000
    1.1949   -0.7194   -0.1348 Ru  0  0  0  0  0  0  0  0  0  0  0  0
    2.7283   -0.7045   -1.3491 C   0  0  0  0  0  0  0  0  0  0  0  0
    2.5216   -1.0617   -2.3737 H   0  0  0  0  0  0  0  0  0  0  0  0
    3.1061   -1.8698   -0.3462 C   0  0  0  0  0  0  0  0  0  0  0  0
    3.1822   -2.7894   -0.9543 H   0  0  0  0  0  0  0  0  0  0  0  0
    2.0747   -2.1875    0.8122 C   0  0  0  0  0  0  0  0  0  0  0  0
    2.4586   -1.9373    1.8173 H   0  0  0  0  0  0  0  0  0  0  0  0
    1.5903   -3.1745    0.7048 H   0  0  0  0  0  0  0  0  0  0  0  0
    4.0435   -1.5596    0.1502 H   0  0  0  0  0  0  0  0  0  0  0  0
    3.3897    0.1760   -1.2618 H   0  0  0  0  0  0  0  0  0  0  0  0
    0.1730   -2.3447   -1.5624 Cl  0  0  0  0  0  0  0  0  0  0  0  0
    2.3847    0.8045    1.2749 Cl  0  0  0  0  0  0  0  0  0  0  0  0
   -0.9710    1.3176   -0.7533 N   0  0  0  0  0  0  0  0  0  0  0  0
   -1.4752    0.1597    1.0179 N   0  0  0  0  0  0  0  0  0  0  0  0
   -0.5179    0.3131    0.0549 C   0  0  0  0  0  0  0  0  0  0  0  0
   -2.2057    1.7917   -0.2992 C   0  0  0  0  0  0  0  0  0  0  0  0
   -2.7292    2.5985   -0.8155 H   0  0  0  0  0  0  0  0  0  0  0  0
   -2.5231    1.0629    0.8143 C   0  0  0  0  0  0  0  0  0  0  0  0
   -3.3856    1.0922    1.4828 H   0  0  0  0  0  0  0  0  0  0  0  0
   -0.2475    1.7935   -1.9076 C   0  0  0  0  0  0  0  0  0  0  0  0
    0.6825    2.8420   -1.7366 C   0  0  0  0  0  0  0  0  0  0  0  0
    1.4105    3.2478   -2.8689 C   0  0  0  0  0  0  0  0  0  0  0  0
    2.1445    4.0608   -2.7580 H   0  0  0  0  0  0  0  0  0  0  0  0
    1.2199    2.6541   -4.1291 C   0  0  0  0  0  0  0  0  0  0  0  0
    0.2431    1.6506   -4.2585 C   0  0  0  0  0  0  0  0  0  0  0  0
    0.0555    1.2004   -5.2455 H   0  0  0  0  0  0  0  0  0  0  0  0
   -0.5143    1.2032   -3.1624 C   0  0  0  0  0  0  0  0  0  0  0  0
    0.8861    3.5008   -0.4007 C   0  0  0  0  0  0  0  0  0  0  0  0
   -0.0786    3.7771    0.0713 H   0  0  0  0  0  0  0  0  0  0  0  0
    1.4968    4.4167   -0.5057 H   0  0  0  0  0  0  0  0  0  0  0  0
    1.4066    2.8107    0.2993 H   0  0  0  0  0  0  0  0  0  0  0  0
    2.0489    3.0787   -5.3150 C   0  0  0  0  0  0  0  0  0  0  0  0
    2.3899    4.1280   -5.2205 H   0  0  0  0  0  0  0  0  0  0  0  0
    1.4859    2.9787   -6.2636 H   0  0  0  0  0  0  0  0  0  0  0  0
    2.9573    2.4454   -5.4062 H   0  0  0  0  0  0  0  0  0  0  0  0
   -1.5637    0.1384   -3.3205 C   0  0  0  0  0  0  0  0  0  0  0  0
   -1.2326   -0.8044   -2.8326 H   0  0  0  0  0  0  0  0  0  0  0  0
   -1.7519   -0.0696   -4.3901 H   0  0  0  0  0  0  0  0  0  0  0  0
   -2.5229    0.4334   -2.8486 H   0  0  0  0  0  0  0  0  0  0  0  0
   -1.3813   -0.8095    2.0828 C   0  0  0  0  0  0  0  0  0  0  0  0
   -1.9073   -2.1018    1.8682 C   0  0  0  0  0  0  0  0  0  0  0  0
   -1.7559   -3.0389    2.9055 C   0  0  0  0  0  0  0  0  0  0  0  0
   -2.1546   -4.0545    2.7586 H   0  0  0  0  0  0  0  0  0  0  0  0
   -1.1236   -2.7123    4.1178 C   0  0  0  0  0  0  0  0  0  0  0  0
   -0.6640   -1.3958    4.3031 C   0  0  0  0  0  0  0  0  0  0  0  0
   -0.1988   -1.1134    5.2601 H   0  0  0  0  0  0  0  0  0  0  0  0
   -0.7864   -0.4172    3.3022 C   0  0  0  0  0  0  0  0  0  0  0  0
   -2.6031   -2.4634    0.5855 C   0  0  0  0  0  0  0  0  0  0  0  0
   -3.1169   -3.4380    0.6808 H   0  0  0  0  0  0  0  0  0  0  0  0
   -1.8715   -2.5327   -0.2493 H   0  0  0  0  0  0  0  0  0  0  0  0
   -3.3541   -1.7000    0.2973 H   0  0  0  0  0  0  0  0  0  0  0  0
   -0.9351   -3.7506    5.1951 C   0  0  0  0  0  0  0  0  0  0  0  0
   -0.9975   -3.3045    6.2071 H   0  0  0  0  0  0  0  0  0  0  0  0
    0.0648   -4.2275    5.1106 H   0  0  0  0  0  0  0  0  0  0  0  0
   -1.6904   -4.5570    5.1222 H   0  0  0  0  0  0  0  0  0  0  0  0
   -0.3016    0.9890    3.5205 C   0  0  0  0  0  0  0  0  0  0  0  0
   -1.0693    1.7371    3.2364 H   0  0  0  0  0  0  0  0  0  0  0  0
    0.5981    1.1874    2.8978 H   0  0  0  0  0  0  0  0  0  0  0  0
   -0.0344    1.1505    4.5813 H   0  0  0  0  0  0  0  0  0  0  0  0
  2  4  1  0  0  0  0
  2  1  1  0  0  0  0
  2  3  1  0  0  0  0
  4  6  1  0  0  0  0
  4  5  1  0  0  0  0
  6  1  1  0  0  0  0
  6  8  1  0  0  0  0
  7  6  1  0  0  0  0
  9  4  1  0  0  0  0
 10  2  1  0  0  0  0
  1 11  1  0  0  0  0
  1 12  1  0  0  0  0
 13 15  1  0  0  0  0
 14 15  1  0  0  0  0
 13 16  1  0  0  0  0
 16 17  1  0  0  0  0
 14 18  1  0  0  0  0
 18 19  1  0  0  0  0
 13 20  1  0  0  0  0
 20 21  2  0  0  0  0
 21 22  1  0  0  0  0
 22 23  1  0  0  0  0
 22 24  2  0  0  0  0
 24 25  1  0  0  0  0
 25 26  1  0  0  0  0
 20 27  1  0  0  0  0
 21 28  1  0  0  0  0
 28 29  1  0  0  0  0
 28 30  1  0  0  0  0
 28 31  1  0  0  0  0
 24 32  1  0  0  0  0
 32 33  1  0  0  0  0
 32 34  1  0  0  0  0
 32 35  1  0  0  0  0
 27 36  1  0  0  0  0
 36 37  1  0  0  0  0
 36 38  1  0  0  0  0
 36 39  1  0  0  0  0
 14 40  1  0  0  0  0
 40 41  1  0  0  0  0
 41 42  2  0  0  0  0
 42 43  1  0  0  0  0
 42 44  1  0  0  0  0
 44 45  2  0  0  0  0
 45 46  1  0  0  0  0
 40 47  2  0  0  0  0
 41 48  1  0  0  0  0
 48 49  1  0  0  0  0
 48 50  1  0  0  0  0
 48 51  1  0  0  0  0
 44 52  1  0  0  0  0
 52 53  1  0  0  0  0
 52 54  1  0  0  0  0
 52 55  1  0  0  0  0
 47 56  1  0  0  0  0
 56 57  1  0  0  0  0
 56 58  1  0  0  0  0
 56 59  1  0  0  0  0
 16 18  2  0  0  0  0
 25 27  2  0  0  0  0
 45 47  1  0  0  0  0
  1 15  1  0  0  0  0
M  END
>  <DFT-ENERGY>
-2055.71274942

$$$$
