
  CDK     08132408213D

 80 83  0  0  0  0  0  0  0  0999 V2000
   -1.2791   -3.9243   -2.5203 C   0  0  0  0  0  0  0  0  0  0  0  0
   -0.2369   -3.9331   -2.8837 H   0  0  0  0  0  0  0  0  0  0  0  0
   -1.7722   -4.8856   -2.7873 H   0  0  0  0  0  0  0  0  0  0  0  0
   -1.8255   -3.1244   -3.0593 H   0  0  0  0  0  0  0  0  0  0  0  0
   -1.3569   -3.7478   -1.0212 C   0  0  0  0  0  0  0  0  0  0  0  0
   -2.3780   -3.7240   -0.5973 H   0  0  0  0  0  0  0  0  0  0  0  0
   -0.3656   -4.2532   -0.1366 C   0  0  0  0  0  0  0  0  0  0  0  0
    0.5983   -4.5286   -0.6001 H   0  0  0  0  0  0  0  0  0  0  0  0
   -0.7531   -4.9434    1.1493 C   0  0  0  0  0  0  0  0  0  0  0  0
    0.1045   -5.0813    1.8343 H   0  0  0  0  0  0  0  0  0  0  0  0
   -1.1489   -5.9518    0.8998 H   0  0  0  0  0  0  0  0  0  0  0  0
   -1.5532   -4.3784    1.6671 H   0  0  0  0  0  0  0  0  0  0  0  0
    0.6787   -2.4763    0.9302 C   0  0  0  0  0  0  0  0  0  0  0  0
    0.3507   -2.6309    1.9797 H   0  0  0  0  0  0  0  0  0  0  0  0
    1.7384   -2.7090    0.6925 H   0  0  0  0  0  0  0  0  0  0  0  0
   -0.4949   -1.8169   -0.3228 Ru  0  0  0  0  0  0  0  0  0  0  0  0
   -2.3408   -1.8727    1.2265 Cl  0  0  0  0  0  0  0  0  0  0  0  0
    1.2786   -2.0446   -1.9408 Cl  0  0  0  0  0  0  0  0  0  0  0  0
   -0.4004    0.1518   -0.4994 C   0  0  0  0  0  0  0  0  0  0  0  0
   -1.7587    2.1791   -1.4019 C   0  0  0  0  0  0  0  0  0  0  0  0
    0.3303    2.5126   -0.0223 C   0  0  0  0  0  0  0  0  0  0  0  0
   -1.1690    2.8238   -0.1515 C   0  0  0  0  0  0  0  0  0  0  0  0
    0.3946    0.9947    0.1892 N   0  0  0  0  0  0  0  0  0  0  0  0
   -1.3405    0.6887   -1.6036 C   0  0  0  0  0  0  0  0  0  0  0  0
   -1.4589    2.7692   -2.2905 H   0  0  0  0  0  0  0  0  0  0  0  0
   -1.6804    2.4529    0.7596 H   0  0  0  0  0  0  0  0  0  0  0  0
   -2.8631    2.2497   -1.3556 H   0  0  0  0  0  0  0  0  0  0  0  0
   -1.3145    3.9231   -0.1838 H   0  0  0  0  0  0  0  0  0  0  0  0
   -0.6814    0.4671   -3.0065 C   0  0  0  0  0  0  0  0  0  0  0  0
   -2.6045   -0.2217   -1.5824 C   0  0  0  0  0  0  0  0  0  0  0  0
    0.9518    3.2733    1.1562 C   0  0  0  0  0  0  0  0  0  0  0  0
    0.8334    4.3563    0.9538 H   0  0  0  0  0  0  0  0  0  0  0  0
    2.0318    3.0615    1.2582 H   0  0  0  0  0  0  0  0  0  0  0  0
    0.4739    3.0507    2.1218 H   0  0  0  0  0  0  0  0  0  0  0  0
    1.0955    2.9502   -1.2838 C   0  0  0  0  0  0  0  0  0  0  0  0
    0.7961    2.3994   -2.1878 H   0  0  0  0  0  0  0  0  0  0  0  0
    2.1833    2.8289   -1.1552 H   0  0  0  0  0  0  0  0  0  0  0  0
    0.8957    4.0263   -1.4618 H   0  0  0  0  0  0  0  0  0  0  0  0
    1.2319    0.5362    1.2982 C   0  0  0  0  0  0  0  0  0  0  0  0
    2.9146   -0.0308    3.4808 C   0  0  0  0  0  0  0  0  0  0  0  0
    2.6203    0.3197    1.0772 C   0  0  0  0  0  0  0  0  0  0  0  0
    0.6693    0.4354    2.6072 C   0  0  0  0  0  0  0  0  0  0  0  0
    1.5458    0.1639    3.6755 C   0  0  0  0  0  0  0  0  0  0  0  0
    3.4354    0.0287    2.1883 C   0  0  0  0  0  0  0  0  0  0  0  0
    1.1328    0.0956    4.6909 H   0  0  0  0  0  0  0  0  0  0  0  0
    4.5091   -0.1418    2.0272 H   0  0  0  0  0  0  0  0  0  0  0  0
    3.5726   -0.2390    4.3371 H   0  0  0  0  0  0  0  0  0  0  0  0
   -0.8187    0.5535    2.9463 C   0  0  0  0  0  0  0  0  0  0  0  0
   -1.3971    0.3982    2.0150 H   0  0  0  0  0  0  0  0  0  0  0  0
    3.3067    0.4143   -0.2813 C   0  0  0  0  0  0  0  0  0  0  0  0
    2.5236    0.5134   -1.0577 H   0  0  0  0  0  0  0  0  0  0  0  0
    4.2524    1.6319   -0.3313 C   0  0  0  0  0  0  0  0  0  0  0  0
    4.6576    1.7683   -1.3548 H   0  0  0  0  0  0  0  0  0  0  0  0
    5.1139    1.4841    0.3522 H   0  0  0  0  0  0  0  0  0  0  0  0
    3.7603    2.5764   -0.0268 H   0  0  0  0  0  0  0  0  0  0  0  0
    4.1170   -0.8533   -0.6054 C   0  0  0  0  0  0  0  0  0  0  0  0
    4.9716   -0.9779    0.0913 H   0  0  0  0  0  0  0  0  0  0  0  0
    4.5314   -0.7803   -1.6311 H   0  0  0  0  0  0  0  0  0  0  0  0
    3.4811   -1.7557   -0.5739 H   0  0  0  0  0  0  0  0  0  0  0  0
   -1.2171    1.9044    3.5765 C   0  0  0  0  0  0  0  0  0  0  0  0
   -2.2498    1.8347    3.9743 H   0  0  0  0  0  0  0  0  0  0  0  0
   -1.2039    2.7497    2.8640 H   0  0  0  0  0  0  0  0  0  0  0  0
   -0.5485    2.1622    4.4244 H   0  0  0  0  0  0  0  0  0  0  0  0
   -1.2460   -0.5561    3.9287 C   0  0  0  0  0  0  0  0  0  0  0  0
   -2.3509   -0.6138    3.9624 H   0  0  0  0  0  0  0  0  0  0  0  0
   -0.8865   -0.3479    4.9582 H   0  0  0  0  0  0  0  0  0  0  0  0
   -0.8788   -1.5494    3.6144 H   0  0  0  0  0  0  0  0  0  0  0  0
   -2.2792   -1.2932   -1.6511 H   0  0  0  0  0  0  0  0  0  0  0  0
   -3.1173   -0.1411   -0.6060 H   0  0  0  0  0  0  0  0  0  0  0  0
   -3.5713    0.0203   -2.7472 C   0  0  0  0  0  0  0  0  0  0  0  0
   -4.0062    1.0410   -2.6627 H   0  0  0  0  0  0  0  0  0  0  0  0
   -4.4253   -0.6821   -2.6571 H   0  0  0  0  0  0  0  0  0  0  0  0
    0.2438    1.0638   -3.1107 H   0  0  0  0  0  0  0  0  0  0  0  0
   -0.3443   -0.5863   -3.0676 H   0  0  0  0  0  0  0  0  0  0  0  0
   -1.6364    0.7645   -4.1682 C   0  0  0  0  0  0  0  0  0  0  0  0
   -1.0933    0.6066   -5.1229 H   0  0  0  0  0  0  0  0  0  0  0  0
   -1.9459    1.8339   -4.1636 H   0  0  0  0  0  0  0  0  0  0  0  0
   -2.8792   -0.1277   -4.1043 C   0  0  0  0  0  0  0  0  0  0  0  0
   -2.5692   -1.1880   -4.2444 H   0  0  0  0  0  0  0  0  0  0  0  0
   -3.5813    0.1089   -4.9304 H   0  0  0  0  0  0  0  0  0  0  0  0
  1  2  1  0  0  0  0
  1  5  1  0  0  0  0
  3  1  1  0  0  0  0
  4  1  1  0  0  0  0
  5  6  1  0  0  0  0
  5 16  1  0  0  0  0
  5  7  1  0  0  0  0
  7  9  1  0  0  0  0
  7  8  1  0  0  0  0
  9 10  1  0  0  0  0
 11  9  1  0  0  0  0
 12  9  1  0  0  0  0
 13 14  1  0  0  0  0
 13 15  1  0  0  0  0
 13  7  1  0  0  0  0
 16 13  1  0  0  0  0
 16 17  1  0  0  0  0
 16 18  1  0  0  0  0
 19 23  1  0  0  0  0
 19 24  1  0  0  0  0
 20 25  1  0  0  0  0
 20 27  1  0  0  0  0
 20 22  1  0  0  0  0
 20 24  1  0  0  0  0
 21 23  1  0  0  0  0
 21 22  1  0  0  0  0
 22 26  1  0  0  0  0
 22 28  1  0  0  0  0
 24 29  1  0  0  0  0
 24 30  1  0  0  0  0
 31 32  1  0  0  0  0
 31 33  1  0  0  0  0
 31 34  1  0  0  0  0
 21 31  1  0  0  0  0
 35 36  1  0  0  0  0
 35 37  1  0  0  0  0
 35 38  1  0  0  0  0
 21 35  1  0  0  0  0
 39 42  2  0  0  0  0
 42 43  1  0  0  0  0
 40 43  2  0  0  0  0
 40 44  1  0  0  0  0
 41 44  2  0  0  0  0
 39 41  1  0  0  0  0
 43 45  1  0  0  0  0
 44 46  1  0  0  0  0
 40 47  1  0  0  0  0
 23 39  1  0  0  0  0
 48 49  1  0  0  0  0
 42 48  1  0  0  0  0
 50 51  1  0  0  0  0
 41 50  1  0  0  0  0
 52 53  1  0  0  0  0
 52 54  1  0  0  0  0
 52 55  1  0  0  0  0
 50 52  1  0  0  0  0
 56 57  1  0  0  0  0
 56 58  1  0  0  0  0
 56 59  1  0  0  0  0
 50 56  1  0  0  0  0
 60 61  1  0  0  0  0
 60 62  1  0  0  0  0
 60 63  1  0  0  0  0
 48 60  1  0  0  0  0
 64 65  1  0  0  0  0
 64 66  1  0  0  0  0
 64 67  1  0  0  0  0
 48 64  1  0  0  0  0
 30 68  1  0  0  0  0
 30 69  1  0  0  0  0
 70 71  1  0  0  0  0
 70 72  1  0  0  0  0
 30 70  1  0  0  0  0
 29 73  1  0  0  0  0
 29 74  1  0  0  0  0
 75 76  1  0  0  0  0
 75 77  1  0  0  0  0
 29 75  1  0  0  0  0
 78 79  1  0  0  0  0
 78 80  1  0  0  0  0
 75 78  1  0  0  0  0
 70 78  1  0  0  0  0
 16 19  1  0  0  0  0
M  END
>  <DFT-ENERGY>
-2201.44837803

$$$$
