
  CDK     08132418253D

 74 78  0  0  0  0  0  0  0  0999 V2000
    2.9144   -0.2236    1.4115 H   0  0  0  0  0  0  0  0  0  0  0  0
    3.1315   -1.3376    1.8869 C   0  0  0  0  0  0  0  0  0  0  0  0
    4.1469   -1.3281    1.4400 H   0  0  0  0  0  0  0  0  0  0  0  0
    1.9722   -2.0215    1.2448 C   0  0  0  0  0  0  0  0  0  0  0  0
    1.5512   -2.9164    1.7237 H   0  0  0  0  0  0  0  0  0  0  0  0
    1.9590   -2.0216    0.1411 H   0  0  0  0  0  0  0  0  0  0  0  0
    1.2999   -0.2508    2.1458 Ru  0  0  0  0  0  0  0  0  0  0  0  0
    2.8898   -0.9943    3.3105 C   0  0  0  0  0  0  0  0  0  0  0  0
    2.5396   -1.7701    4.0055 H   0  0  0  0  0  0  0  0  0  0  0  0
    3.5584   -0.2251    3.7338 H   0  0  0  0  0  0  0  0  0  0  0  0
    0.0794   -1.8743    3.4528 Cl  0  0  0  0  0  0  0  0  0  0  0  0
    2.3609    1.8879    1.6008 Cl  0  0  0  0  0  0  0  0  0  0  0  0
   -0.3951    0.8710    2.1479 C   0  0  0  0  0  0  0  0  0  0  0  0
   -1.5720    3.0128    2.9170 C   0  0  0  0  0  0  0  0  0  0  0  0
   -1.7220    2.2656    0.5142 C   0  0  0  0  0  0  0  0  0  0  0  0
   -2.5066    2.7534    1.7409 C   0  0  0  0  0  0  0  0  0  0  0  0
   -0.9570    0.9985    0.9363 N   0  0  0  0  0  0  0  0  0  0  0  0
   -0.8449    1.7210    3.3379 C   0  0  0  0  0  0  0  0  0  0  0  0
   -2.1450    3.4127    3.7754 H   0  0  0  0  0  0  0  0  0  0  0  0
   -3.0480    3.6778    1.4544 H   0  0  0  0  0  0  0  0  0  0  0  0
   -0.8282    3.7906    2.6530 H   0  0  0  0  0  0  0  0  0  0  0  0
   -3.2786    2.0050    2.0129 H   0  0  0  0  0  0  0  0  0  0  0  0
   -1.8491    0.8054    4.1299 C   0  0  0  0  0  0  0  0  0  0  0  0
    0.3642    2.0216    4.2600 C   0  0  0  0  0  0  0  0  0  0  0  0
   -0.7228    3.3693    0.0996 C   0  0  0  0  0  0  0  0  0  0  0  0
   -1.2288    4.3527    0.1779 H   0  0  0  0  0  0  0  0  0  0  0  0
   -0.3929    3.2538   -0.9449 H   0  0  0  0  0  0  0  0  0  0  0  0
    0.1754    3.3787    0.7445 H   0  0  0  0  0  0  0  0  0  0  0  0
   -2.6656    1.9696   -0.6529 C   0  0  0  0  0  0  0  0  0  0  0  0
   -3.4452    1.2319   -0.3949 H   0  0  0  0  0  0  0  0  0  0  0  0
   -2.1239    1.5943   -1.5399 H   0  0  0  0  0  0  0  0  0  0  0  0
   -3.1669    2.9167   -0.9347 H   0  0  0  0  0  0  0  0  0  0  0  0
   -0.8292   -0.1178   -0.0162 C   0  0  0  0  0  0  0  0  0  0  0  0
   -0.8589   -2.2102   -1.9039 C   0  0  0  0  0  0  0  0  0  0  0  0
   -1.6839   -1.2474    0.1932 C   0  0  0  0  0  0  0  0  0  0  0  0
    0.0358   -0.0579   -1.1460 C   0  0  0  0  0  0  0  0  0  0  0  0
   -0.0047   -1.1215   -2.0704 C   0  0  0  0  0  0  0  0  0  0  0  0
   -1.6757   -2.2690   -0.7719 C   0  0  0  0  0  0  0  0  0  0  0  0
    0.6579   -1.0822   -2.9466 H   0  0  0  0  0  0  0  0  0  0  0  0
   -2.3280   -3.1391   -0.6238 H   0  0  0  0  0  0  0  0  0  0  0  0
   -0.8799   -3.0208   -2.6467 H   0  0  0  0  0  0  0  0  0  0  0  0
    1.0241    1.0627   -1.4446 C   0  0  0  0  0  0  0  0  0  0  0  0
    1.0309    1.7575   -0.5883 H   0  0  0  0  0  0  0  0  0  0  0  0
   -2.5793   -1.4319    1.4162 C   0  0  0  0  0  0  0  0  0  0  0  0
   -2.0885   -0.9104    2.2559 H   0  0  0  0  0  0  0  0  0  0  0  0
   -3.9915   -0.8515    1.2267 C   0  0  0  0  0  0  0  0  0  0  0  0
   -4.6231   -1.1017    2.1036 H   0  0  0  0  0  0  0  0  0  0  0  0
   -4.4806   -1.2754    0.3248 H   0  0  0  0  0  0  0  0  0  0  0  0
   -3.9921    0.2495    1.1264 H   0  0  0  0  0  0  0  0  0  0  0  0
   -2.6991   -2.9049    1.8422 C   0  0  0  0  0  0  0  0  0  0  0  0
   -3.3518   -3.4867    1.1580 H   0  0  0  0  0  0  0  0  0  0  0  0
   -3.1558   -2.9559    2.8506 H   0  0  0  0  0  0  0  0  0  0  0  0
   -1.7073   -3.3891    1.9007 H   0  0  0  0  0  0  0  0  0  0  0  0
    0.6428    1.8232   -2.7290 C   0  0  0  0  0  0  0  0  0  0  0  0
    1.3161    2.6919   -2.8782 H   0  0  0  0  0  0  0  0  0  0  0  0
   -0.3995    2.1979   -2.7105 H   0  0  0  0  0  0  0  0  0  0  0  0
    0.7368    1.1706   -3.6213 H   0  0  0  0  0  0  0  0  0  0  0  0
    2.4630    0.5347   -1.5825 C   0  0  0  0  0  0  0  0  0  0  0  0
    2.5802   -0.1259   -2.4659 H   0  0  0  0  0  0  0  0  0  0  0  0
    2.7688   -0.0305   -0.6837 H   0  0  0  0  0  0  0  0  0  0  0  0
    3.1664    1.3834   -1.6958 H   0  0  0  0  0  0  0  0  0  0  0  0
    0.9271    1.0699    4.4016 H   0  0  0  0  0  0  0  0  0  0  0  0
    1.0566    2.7066    3.7360 H   0  0  0  0  0  0  0  0  0  0  0  0
   -0.0303    2.5798    5.6308 C   0  0  0  0  0  0  0  0  0  0  0  0
   -0.5114    3.5772    5.5170 H   0  0  0  0  0  0  0  0  0  0  0  0
    0.8906    2.7512    6.2255 H   0  0  0  0  0  0  0  0  0  0  0  0
   -2.7663    0.6578    3.5257 H   0  0  0  0  0  0  0  0  0  0  0  0
   -1.3828   -0.1913    4.2551 H   0  0  0  0  0  0  0  0  0  0  0  0
   -2.2211    1.3644    5.5099 C   0  0  0  0  0  0  0  0  0  0  0  0
   -2.8913    0.6326    6.0077 H   0  0  0  0  0  0  0  0  0  0  0  0
   -2.8119    2.3025    5.4114 H   0  0  0  0  0  0  0  0  0  0  0  0
   -0.9816    1.6326    6.3667 C   0  0  0  0  0  0  0  0  0  0  0  0
   -0.4587    0.6700    6.5626 H   0  0  0  0  0  0  0  0  0  0  0  0
   -1.2715    2.0498    7.3534 H   0  0  0  0  0  0  0  0  0  0  0  0
  1  2  1  0  0  0  0
  1  7  1  0  0  0  0
  2  3  1  0  0  0  0
  2  4  1  0  0  0  0
  4  5  1  0  0  0  0
  4  6  1  0  0  0  0
  7  8  1  0  0  0  0
  4  7  1  0  0  0  0
  2  8  1  0  0  0  0
  8  9  1  0  0  0  0
  8 10  1  0  0  0  0
  7 11  1  0  0  0  0
  7 12  1  0  0  0  0
 13 17  1  0  0  0  0
 13 18  1  0  0  0  0
 14 19  1  0  0  0  0
 14 21  1  0  0  0  0
 14 16  1  0  0  0  0
 14 18  1  0  0  0  0
 15 17  1  0  0  0  0
 15 16  1  0  0  0  0
 16 20  1  0  0  0  0
 16 22  1  0  0  0  0
 18 23  1  0  0  0  0
 18 24  1  0  0  0  0
 25 26  1  0  0  0  0
 25 27  1  0  0  0  0
 25 28  1  0  0  0  0
 15 25  1  0  0  0  0
 29 30  1  0  0  0  0
 29 31  1  0  0  0  0
 29 32  1  0  0  0  0
 15 29  1  0  0  0  0
 33 36  2  0  0  0  0
 36 37  1  0  0  0  0
 34 37  2  0  0  0  0
 34 38  1  0  0  0  0
 35 38  2  0  0  0  0
 33 35  1  0  0  0  0
 37 39  1  0  0  0  0
 38 40  1  0  0  0  0
 34 41  1  0  0  0  0
 17 33  1  0  0  0  0
 42 43  1  0  0  0  0
 36 42  1  0  0  0  0
 44 45  1  0  0  0  0
 35 44  1  0  0  0  0
 46 47  1  0  0  0  0
 46 48  1  0  0  0  0
 46 49  1  0  0  0  0
 44 46  1  0  0  0  0
 50 51  1  0  0  0  0
 50 52  1  0  0  0  0
 50 53  1  0  0  0  0
 44 50  1  0  0  0  0
 54 55  1  0  0  0  0
 54 56  1  0  0  0  0
 54 57  1  0  0  0  0
 42 54  1  0  0  0  0
 58 59  1  0  0  0  0
 58 60  1  0  0  0  0
 58 61  1  0  0  0  0
 42 58  1  0  0  0  0
 24 62  1  0  0  0  0
 24 63  1  0  0  0  0
 64 65  1  0  0  0  0
 64 66  1  0  0  0  0
 24 64  1  0  0  0  0
 23 67  1  0  0  0  0
 23 68  1  0  0  0  0
 69 70  1  0  0  0  0
 69 71  1  0  0  0  0
 23 69  1  0  0  0  0
 72 73  1  0  0  0  0
 72 74  1  0  0  0  0
 69 72  1  0  0  0  0
 64 72  1  0  0  0  0
  7 13  1  0  0  0  0
M  END
>  <DFT-ENERGY>
-2122.90126283

$$$$
