CAACCyDIPP-4_A2
  CDK     08122414583D

 88 92  0  0  0  0  0  0  0  0999 V2000
    0.7501   -0.5725   -1.2504 Ru  0  0  0  0  0  0  0  0  0  0  0  0
    2.5279   -0.5725   -2.6396 O   0  0  0  0  0  0  0  0  0  0  0  0
    1.9603    0.3608   -0.2463 C   0  0  0  0  0  0  0  0  0  0  0  0
    1.7275    0.6537    0.7764 H   0  0  0  0  0  0  0  0  0  0  0  0
    2.7634   -1.3477   -3.8654 C   0  0  0  0  0  0  0  0  0  0  0  0
    3.1869   -0.6507   -4.6198 H   0  0  0  0  0  0  0  0  0  0  0  0
    1.3458   -1.7804   -4.2074 C   0  0  0  0  0  0  0  0  0  0  0  0
    0.9516   -2.4828   -3.4454 H   0  0  0  0  0  0  0  0  0  0  0  0
    0.6671   -0.9041   -4.2229 H   0  0  0  0  0  0  0  0  0  0  0  0
    1.2929   -2.2731   -5.1819 H   0  0  0  0  0  0  0  0  0  0  0  0
    3.6906   -2.5019   -3.5282 C   0  0  0  0  0  0  0  0  0  0  0  0
    3.6910   -3.2688   -4.3090 H   0  0  0  0  0  0  0  0  0  0  0  0
    4.7240   -2.1800   -3.3632 H   0  0  0  0  0  0  0  0  0  0  0  0
    3.3586   -2.9913   -2.5905 H   0  0  0  0  0  0  0  0  0  0  0  0
    3.5201    0.2259   -2.1346 C   0  0  0  0  0  0  0  0  0  0  0  0
    4.6892    0.5746   -2.7876 C   0  0  0  0  0  0  0  0  0  0  0  0
    4.9088    0.2221   -3.7928 H   0  0  0  0  0  0  0  0  0  0  0  0
    5.5904    1.4057   -2.1301 C   0  0  0  0  0  0  0  0  0  0  0  0
    6.5136    1.6922   -2.6385 H   0  0  0  0  0  0  0  0  0  0  0  0
    5.3404    1.8773   -0.8448 C   0  0  0  0  0  0  0  0  0  0  0  0
    6.0661    2.5205   -0.3500 H   0  0  0  0  0  0  0  0  0  0  0  0
    4.1707    1.5170   -0.2032 C   0  0  0  0  0  0  0  0  0  0  0  0
    3.9784    1.8701    0.8088 H   0  0  0  0  0  0  0  0  0  0  0  0
    3.2352    0.7016   -0.8426 C   0  0  0  0  0  0  0  0  0  0  0  0
    1.3639   -2.8162   -0.6769 Cl  0  0  0  0  0  0  0  0  0  0  0  0
   -0.0744    1.1362   -2.6118 Cl  0  0  0  0  0  0  0  0  0  0  0  0
   -0.9697   -0.3652   -0.2827 C   0  0  0  0  0  0  0  0  0  0  0  0
   -3.4398   -0.7423   -0.8499 C   0  0  0  0  0  0  0  0  0  0  0  0
   -2.8457    0.9948    0.8581 C   0  0  0  0  0  0  0  0  0  0  0  0
   -3.7957   -0.1716    0.5160 C   0  0  0  0  0  0  0  0  0  0  0  0
   -1.3867    0.5561    0.6302 N   0  0  0  0  0  0  0  0  0  0  0  0
   -2.0274   -1.3714   -0.8107 C   0  0  0  0  0  0  0  0  0  0  0  0
   -3.4779    0.0412   -1.6320 H   0  0  0  0  0  0  0  0  0  0  0  0
   -3.7429   -0.9621    1.2917 H   0  0  0  0  0  0  0  0  0  0  0  0
   -4.1892   -1.5007   -1.1529 H   0  0  0  0  0  0  0  0  0  0  0  0
   -4.8440    0.1815    0.5317 H   0  0  0  0  0  0  0  0  0  0  0  0
   -1.6933   -1.8987   -2.2334 C   0  0  0  0  0  0  0  0  0  0  0  0
   -1.9988   -2.5857    0.1631 C   0  0  0  0  0  0  0  0  0  0  0  0
   -3.0809    1.3984    2.3224 C   0  0  0  0  0  0  0  0  0  0  0  0
   -4.1285    1.6823    2.4774 H   0  0  0  0  0  0  0  0  0  0  0  0
   -2.4724    2.2610    2.6245 H   0  0  0  0  0  0  0  0  0  0  0  0
   -2.8537    0.5859    3.0228 H   0  0  0  0  0  0  0  0  0  0  0  0
   -3.1489    2.1878   -0.0645 C   0  0  0  0  0  0  0  0  0  0  0  0
   -2.5324    2.1678   -0.9810 H   0  0  0  0  0  0  0  0  0  0  0  0
   -2.9481    3.1518    0.4285 H   0  0  0  0  0  0  0  0  0  0  0  0
   -4.1963    2.2046   -0.3805 H   0  0  0  0  0  0  0  0  0  0  0  0
   -0.4431    1.2264    1.5335 C   0  0  0  0  0  0  0  0  0  0  0  0
    1.1807    2.4669    3.4611 C   0  0  0  0  0  0  0  0  0  0  0  0
    0.0451    2.5329    1.3006 C   0  0  0  0  0  0  0  0  0  0  0  0
   -0.0957    0.5322    2.7263 C   0  0  0  0  0  0  0  0  0  0  0  0
    0.7200    1.1664    3.6706 C   0  0  0  0  0  0  0  0  0  0  0  0
    0.8489    3.1346    2.2869 C   0  0  0  0  0  0  0  0  0  0  0  0
    1.0014    0.6368    4.5812 H   0  0  0  0  0  0  0  0  0  0  0  0
    1.2227    4.1458    2.1194 H   0  0  0  0  0  0  0  0  0  0  0  0
    1.8029    2.9526    4.2115 H   0  0  0  0  0  0  0  0  0  0  0  0
   -0.5348   -0.8993    2.9960 C   0  0  0  0  0  0  0  0  0  0  0  0
   -1.3927   -1.1760    2.3220 H   0  0  0  0  0  0  0  0  0  0  0  0
   -0.2132    3.3343    0.0357 C   0  0  0  0  0  0  0  0  0  0  0  0
   -0.8428    2.7253   -0.6726 H   0  0  0  0  0  0  0  0  0  0  0  0
   -0.9666    4.6315    0.3681 C   0  0  0  0  0  0  0  0  0  0  0  0
   -1.1706    5.2046   -0.5439 H   0  0  0  0  0  0  0  0  0  0  0  0
   -0.3952    5.2816    1.0380 H   0  0  0  0  0  0  0  0  0  0  0  0
   -1.9314    4.4161    0.8493 H   0  0  0  0  0  0  0  0  0  0  0  0
    1.0995    3.6415   -0.6949 C   0  0  0  0  0  0  0  0  0  0  0  0
    1.8187    4.1830   -0.0770 H   0  0  0  0  0  0  0  0  0  0  0  0
    0.9118    4.2372   -1.5964 H   0  0  0  0  0  0  0  0  0  0  0  0
    1.5755    2.7098   -1.0435 H   0  0  0  0  0  0  0  0  0  0  0  0
   -1.0219   -1.0897    4.4385 C   0  0  0  0  0  0  0  0  0  0  0  0
   -1.4497   -2.0894    4.5749 H   0  0  0  0  0  0  0  0  0  0  0  0
   -1.7887   -0.3552    4.7059 H   0  0  0  0  0  0  0  0  0  0  0  0
   -0.2060   -0.9922    5.1644 H   0  0  0  0  0  0  0  0  0  0  0  0
    0.6335   -1.8340    2.6669 C   0  0  0  0  0  0  0  0  0  0  0  0
    0.3464   -2.8879    2.7458 H   0  0  0  0  0  0  0  0  0  0  0  0
    1.4941   -1.6757    3.3239 H   0  0  0  0  0  0  0  0  0  0  0  0
    0.9840   -1.6775    1.6286 H   0  0  0  0  0  0  0  0  0  0  0  0
   -0.9649   -2.9972    0.2005 H   0  0  0  0  0  0  0  0  0  0  0  0
   -2.2244   -2.2513    1.1969 H   0  0  0  0  0  0  0  0  0  0  0  0
   -2.9693   -3.6954   -0.2627 C   0  0  0  0  0  0  0  0  0  0  0  0
   -4.0146   -3.3488   -0.1527 H   0  0  0  0  0  0  0  0  0  0  0  0
   -2.8590   -4.5591    0.4211 H   0  0  0  0  0  0  0  0  0  0  0  0
   -1.6565   -1.0582   -2.9573 H   0  0  0  0  0  0  0  0  0  0  0  0
   -0.7019   -2.4237   -2.2642 H   0  0  0  0  0  0  0  0  0  0  0  0
   -2.7118   -2.9636   -2.6852 C   0  0  0  0  0  0  0  0  0  0  0  0
   -2.4528   -3.3138   -3.7020 H   0  0  0  0  0  0  0  0  0  0  0  0
   -3.7249   -2.5262   -2.7640 H   0  0  0  0  0  0  0  0  0  0  0  0
   -2.7199   -4.1495   -1.7086 C   0  0  0  0  0  0  0  0  0  0  0  0
   -1.7467   -4.6789   -1.7630 H   0  0  0  0  0  0  0  0  0  0  0  0
   -3.4874   -4.8847   -2.0114 H   0  0  0  0  0  0  0  0  0  0  0  0
  2  1  1  0  0  0  0
  3  1  2  0  0  0  0
  4  3  1  0  0  0  0
  5  2  1  0  0  0  0
  6  5  1  0  0  0  0
  7  5  1  0  0  0  0
  8  7  1  0  0  0  0
  9  7  1  0  0  0  0
 10  7  1  0  0  0  0
 11  5  1  0  0  0  0
 12 11  1  0  0  0  0
 13 11  1  0  0  0  0
 14 11  1  0  0  0  0
 15  2  1  0  0  0  0
 15 24  1  0  0  0  0
 16 15  2  0  0  0  0
 17 16  1  0  0  0  0
 18 16  1  0  0  0  0
 19 18  1  0  0  0  0
 20 18  2  0  0  0  0
 21 20  1  0  0  0  0
 22 20  1  0  0  0  0
 22 24  2  0  0  0  0
 23 22  1  0  0  0  0
 24  3  1  0  0  0  0
  1 25  1  0  0  0  0
  1 26  1  0  0  0  0
 27 31  1  0  0  0  0
 27 32  1  0  0  0  0
 28 33  1  0  0  0  0
 28 35  1  0  0  0  0
 28 30  1  0  0  0  0
 28 32  1  0  0  0  0
 29 31  1  0  0  0  0
 29 30  1  0  0  0  0
 30 34  1  0  0  0  0
 30 36  1  0  0  0  0
 32 37  1  0  0  0  0
 32 38  1  0  0  0  0
 39 40  1  0  0  0  0
 39 41  1  0  0  0  0
 39 42  1  0  0  0  0
 29 39  1  0  0  0  0
 43 44  1  0  0  0  0
 43 45  1  0  0  0  0
 43 46  1  0  0  0  0
 29 43  1  0  0  0  0
 47 50  2  0  0  0  0
 50 51  1  0  0  0  0
 48 51  2  0  0  0  0
 48 52  1  0  0  0  0
 49 52  2  0  0  0  0
 47 49  1  0  0  0  0
 51 53  1  0  0  0  0
 52 54  1  0  0  0  0
 48 55  1  0  0  0  0
 31 47  1  0  0  0  0
 56 57  1  0  0  0  0
 50 56  1  0  0  0  0
 58 59  1  0  0  0  0
 49 58  1  0  0  0  0
 60 61  1  0  0  0  0
 60 62  1  0  0  0  0
 60 63  1  0  0  0  0
 58 60  1  0  0  0  0
 64 65  1  0  0  0  0
 64 66  1  0  0  0  0
 64 67  1  0  0  0  0
 58 64  1  0  0  0  0
 68 69  1  0  0  0  0
 68 70  1  0  0  0  0
 68 71  1  0  0  0  0
 56 68  1  0  0  0  0
 72 73  1  0  0  0  0
 72 74  1  0  0  0  0
 72 75  1  0  0  0  0
 56 72  1  0  0  0  0
 38 76  1  0  0  0  0
 38 77  1  0  0  0  0
 78 79  1  0  0  0  0
 78 80  1  0  0  0  0
 38 78  1  0  0  0  0
 37 81  1  0  0  0  0
 37 82  1  0  0  0  0
 83 84  1  0  0  0  0
 83 85  1  0  0  0  0
 37 83  1  0  0  0  0
 86 87  1  0  0  0  0
 86 88  1  0  0  0  0
 83 86  1  0  0  0  0
 78 86  1  0  0  0  0
  1 27  1  0  0  0  0
M  END
> <FrozenCore-PM6_ENERGY>
-168.001

> <RMSD_CONF_CG-CS>
0.852393

> <RMSD_CONF_GO-CS>
0.000000

> <UID>


> <DESCRIPTOR_DEFINITION_1>
desc1=( echo "1 * ( e( $hartree_to_kcalmol * ( ( $freeEnergyZ - $freeEnergyD ) - ( $freeEnergyX + 2*$G_Ethene - $freeEnergyD - 2*$G_Propene ) - $DDG_reference_HGII ) / $kT ) ) " | bc -l )

> <DESCRIPTOR_DEFINITION_2>
desc1=( echo "1 * ( e( $hartree_to_kcalmol * ( ( $freeEnergyZ - $freeEnergyD ) - ( $freeEnergyX + 2*$G_Ethene - $freeEnergyD - 2*$G_Propene ) - $DDG_reference_HGII ) / $kT ) ) " | bc -l )

> <DESCRIPTOR_DEFINITION_3>
desc1=( echo "1 * ( e( $hartree_to_kcalmol * ( ( $freeEnergyZ - $freeEnergyD ) - ( $freeEnergyX + 2*$G_Ethene - $freeEnergyD - 2*$G_Propene ) - $DDG_reference_HGII ) / $kT ) ) " | bc -l )

> <WEIGHT_DEFINITION_1>
w1=$( echo "1 / ( 1 + e( $hartree_to_kcalmol * ( ( ( $freeEnergyX + 2*$G_Ethene - $freeEnergyD - 2*$G_Propene ) ) - ( $DG_referenceProductionBarrier + $magnitude4 ) ) / $kT ) )" | bc -l )

> <WEIGHT_DEFINITION_2>
w1=$( echo "1 / ( 1 + e( $hartree_to_kcalmol * ( ( ( $freeEnergyX + 2*$G_Ethene - $freeEnergyD - 2*$G_Propene ) ) - ( $DG_referenceProductionBarrier + $magnitude4 ) ) / $kT ) )" | bc -l )

> <WEIGHT_DEFINITION_3>
w1=$( echo "1 / ( 1 + e( $hartree_to_kcalmol * ( ( ( $freeEnergyX + 2*$G_Ethene - $freeEnergyD - 2*$G_Propene ) ) - ( $DG_referenceProductionBarrier + $magnitude4 ) ) / $kT ) )" | bc -l )

> <WEIGHT_DEFINITION_4>
w1=$( echo "1 / ( 1 + e( $hartree_to_kcalmol * ( ( ( $freeEnergyX + 2*$G_Ethene - $freeEnergyD - 2*$G_Propene ) ) - ( $DG_referenceProductionBarrier + $magnitude4 ) ) / $kT ) )" | bc -l )

> <CALCULATION_OF_OVERALL_FITNESS>
fitness=$( echo "( $desc1 + $desc2 + $desc3 ) * ( $w1 * $w2 * $w3 * $w4 )" | bc -l )

> <freeEnergyA>
-2468.18474328

> <freeEnergyF>
-2468.16127797

> <freeEnergyE>
-2468.18474328

> <freeEnergyC>
-2122.92584555

> <freeEnergyL>
-990.316532143

> <freeEnergyX>
-2201.44837771

> <freeEnergyZ>
-2122.90126358

> <freeEnergyD>
-2122.94949023

> <G_Propene>
-117.738020895

> <G_Ethene>
-78.4716324751

> <G_HoveydaProd>
-502.204109499

> <G_SIMes>
-924.27249048

> <G_HG_RuCl2_SIMes>
-2402.13728523

> <DG_referenceProductionBarrier>
0.01468968

> <DG_referencePrecursorStabilityHII>
-0.0052201621

> <DG_referencePrecursorStabilityHI>
0.0117775312

> <DDG_referencePrecursorStability>
.0169976933

> <DG_referenceSynt>
0.0226072217

> <hartree_to_kcalmol>
627.49467516

> <boltzmann_constant>
0.0000000000000000000000138066

> <avogadro_number>
602214000000000000000000

> <jmol_to_kcalmol>
0.00023901

> <temp>
313.15

> <kT>
.6223089948281258706000000000

> <magnitude1>
1.43290809

> <magnitude2>
2.86581618

> <magnitude3>
4.29872427

> <magnitude4>
5.73163236

> <DFT_IDENTIFIER>
1723662714560

> <DFT_MACHINE>
158.39.114.73

> <XTB_IDENTIFIER>
NREC

> <XTB_MACHINE>
NREC

> <DESCRIPTOR_1>
.00034922908106964085

> <DESCRIPTOR_2>
8.996573256723651432

> <DESCRIPTOR_3>
0.0000000001

> <WEIGHT_1>
.07554476119451918937

> <WEIGHT_2>
.99999990229191702736

> <WEIGHT_3>
.99999999999959828269

> <WEIGHT_4>
.99999999470081005987

> <FITNESS>
.67967029067200907383

$$$$
