tetraMeSIPh-1_A2
  CDK     08122416123D

 69 73  0  0  0  0  0  0  0  0999 V2000
    1.0882    0.3885   -0.2208 Ru  0  0  0  0  0  0  0  0  0  0  0  0
    2.8660    0.3885   -1.6100 O   0  0  0  0  0  0  0  0  0  0  0  0
    2.2984    1.3218    0.7833 C   0  0  0  0  0  0  0  0  0  0  0  0
    2.0656    1.6147    1.8060 H   0  0  0  0  0  0  0  0  0  0  0  0
    3.1015   -0.3867   -2.8358 C   0  0  0  0  0  0  0  0  0  0  0  0
    3.5128    0.3130   -3.5941 H   0  0  0  0  0  0  0  0  0  0  0  0
    1.6823   -0.8290   -3.1552 C   0  0  0  0  0  0  0  0  0  0  0  0
    1.6153   -1.3298   -4.1239 H   0  0  0  0  0  0  0  0  0  0  0  0
    1.2973   -1.5285   -2.3833 H   0  0  0  0  0  0  0  0  0  0  0  0
    0.9950    0.0414   -3.1648 H   0  0  0  0  0  0  0  0  0  0  0  0
    4.0398   -1.5320   -2.5000 C   0  0  0  0  0  0  0  0  0  0  0  0
    4.0362   -2.3040   -3.2758 H   0  0  0  0  0  0  0  0  0  0  0  0
    5.0729   -1.2033   -2.3475 H   0  0  0  0  0  0  0  0  0  0  0  0
    3.7182   -2.0167   -1.5562 H   0  0  0  0  0  0  0  0  0  0  0  0
    3.8582    1.1869   -1.1050 C   0  0  0  0  0  0  0  0  0  0  0  0
    5.0273    1.5357   -1.7580 C   0  0  0  0  0  0  0  0  0  0  0  0
    5.2463    1.1853   -2.7640 H   0  0  0  0  0  0  0  0  0  0  0  0
    5.9285    2.3668   -1.1005 C   0  0  0  0  0  0  0  0  0  0  0  0
    6.8512    2.6543   -1.6093 H   0  0  0  0  0  0  0  0  0  0  0  0
    5.6785    2.8384    0.1848 C   0  0  0  0  0  0  0  0  0  0  0  0
    6.4034    3.4829    0.6792 H   0  0  0  0  0  0  0  0  0  0  0  0
    4.5088    2.4781    0.8264 C   0  0  0  0  0  0  0  0  0  0  0  0
    4.3156    2.8327    1.8377 H   0  0  0  0  0  0  0  0  0  0  0  0
    3.5733    1.6626    0.1870 C   0  0  0  0  0  0  0  0  0  0  0  0
    1.6897   -1.8104    0.3412 Cl  0  0  0  0  0  0  0  0  0  0  0  0
    0.2639    2.0968   -1.5819 Cl  0  0  0  0  0  0  0  0  0  0  0  0
   -0.4266    0.3347    1.0072 C   0  0  0  0  0  0  0  0  0  0  0  0
   -0.8445    0.9820    2.1794 N   0  0  0  0  0  0  0  0  0  0  0  0
   -2.0143    0.2798    2.8630 C   0  0  0  0  0  0  0  0  0  0  0  0
   -2.5906   -0.6216    1.6741 C   0  0  0  0  0  0  0  0  0  0  0  0
   -1.4157   -0.6150    0.7192 N   0  0  0  0  0  0  0  0  0  0  0  0
   -0.2789    2.1951    2.7046 C   0  0  0  0  0  0  0  0  0  0  0  0
    0.7387    4.6106    3.6916 C   0  0  0  0  0  0  0  0  0  0  0  0
   -0.0334    2.3436    4.0814 C   0  0  0  0  0  0  0  0  0  0  0  0
    0.0006    3.2554    1.8184 C   0  0  0  0  0  0  0  0  0  0  0  0
    0.5086    4.4534    2.3194 C   0  0  0  0  0  0  0  0  0  0  0  0
    0.4700    3.5536    4.5648 C   0  0  0  0  0  0  0  0  0  0  0  0
    0.7245    5.2726    1.6319 H   0  0  0  0  0  0  0  0  0  0  0  0
    0.6572    3.6686    5.6320 H   0  0  0  0  0  0  0  0  0  0  0  0
   -1.3293   -1.4975   -0.4254 C   0  0  0  0  0  0  0  0  0  0  0  0
   -1.3500   -3.1660   -2.6619 C   0  0  0  0  0  0  0  0  0  0  0  0
   -1.1226   -2.8791   -0.2618 C   0  0  0  0  0  0  0  0  0  0  0  0
   -1.4839   -0.9390   -1.7075 C   0  0  0  0  0  0  0  0  0  0  0  0
   -1.5035   -1.7856   -2.8205 C   0  0  0  0  0  0  0  0  0  0  0  0
   -1.1437   -3.7063   -1.3868 C   0  0  0  0  0  0  0  0  0  0  0  0
   -0.9075   -3.2890    0.7248 H   0  0  0  0  0  0  0  0  0  0  0  0
   -1.5851    0.1462   -1.8296 H   0  0  0  0  0  0  0  0  0  0  0  0
   -1.6387   -1.3606   -3.8148 H   0  0  0  0  0  0  0  0  0  0  0  0
   -0.9848   -4.7778   -1.2695 H   0  0  0  0  0  0  0  0  0  0  0  0
   -1.3778   -3.8207   -3.5307 H   0  0  0  0  0  0  0  0  0  0  0  0
   -0.1691    3.1349    0.7404 H   0  0  0  0  0  0  0  0  0  0  0  0
   -0.2251    1.5164    4.7687 H   0  0  0  0  0  0  0  0  0  0  0  0
    1.1279    5.5513    4.0742 H   0  0  0  0  0  0  0  0  0  0  0  0
   -3.0293    1.2932    3.3858 C   0  0  0  0  0  0  0  0  0  0  0  0
   -3.2896    2.0491    2.6324 H   0  0  0  0  0  0  0  0  0  0  0  0
   -2.6458    1.8460    4.2540 H   0  0  0  0  0  0  0  0  0  0  0  0
   -3.9559    0.8004    3.7010 H   0  0  0  0  0  0  0  0  0  0  0  0
   -1.4696   -0.5688    4.0188 C   0  0  0  0  0  0  0  0  0  0  0  0
   -2.2689   -1.0961    4.5490 H   0  0  0  0  0  0  0  0  0  0  0  0
   -0.9455    0.0549    4.7611 H   0  0  0  0  0  0  0  0  0  0  0  0
   -0.7402   -1.3132    3.6701 H   0  0  0  0  0  0  0  0  0  0  0  0
   -3.7824    0.0238    0.9524 C   0  0  0  0  0  0  0  0  0  0  0  0
   -3.5641    1.0535    0.6401 H   0  0  0  0  0  0  0  0  0  0  0  0
   -4.6800    0.0416    1.5777 H   0  0  0  0  0  0  0  0  0  0  0  0
   -4.0340   -0.5302    0.0375 H   0  0  0  0  0  0  0  0  0  0  0  0
   -2.9721   -2.0330    2.1144 C   0  0  0  0  0  0  0  0  0  0  0  0
   -3.7211   -2.0091    2.9140 H   0  0  0  0  0  0  0  0  0  0  0  0
   -2.1107   -2.6086    2.4771 H   0  0  0  0  0  0  0  0  0  0  0  0
   -3.4061   -2.6064    1.2832 H   0  0  0  0  0  0  0  0  0  0  0  0
  1  2  1  0  0  0  0
  1  3  2  0  0  0  0
  3  4  1  0  0  0  0
  2  5  1  0  0  0  0
  5  6  1  0  0  0  0
  5  7  1  0  0  0  0
  7  8  1  0  0  0  0
  7  9  1  0  0  0  0
  7 10  1  0  0  0  0
  5 11  1  0  0  0  0
 11 12  1  0  0  0  0
 11 13  1  0  0  0  0
 11 14  1  0  0  0  0
  2 15  1  0  0  0  0
 15 24  1  0  0  0  0
 15 16  2  0  0  0  0
 16 17  1  0  0  0  0
 16 18  1  0  0  0  0
 18 19  1  0  0  0  0
 18 20  2  0  0  0  0
 20 21  1  0  0  0  0
 20 22  1  0  0  0  0
 22 24  2  0  0  0  0
 22 23  1  0  0  0  0
  3 24  1  0  0  0  0
  1 25  1  0  0  0  0
  1 26  1  0  0  0  0
 27 28  1  0  0  0  0
 27 31  1  0  0  0  0
 28 29  1  0  0  0  0
 28 32  1  0  0  0  0
 29 54  1  0  0  0  0
 29 58  1  0  0  0  0
 30 31  1  0  0  0  0
 29 30  1  0  0  0  0
 30 62  1  0  0  0  0
 30 66  1  0  0  0  0
 31 40  1  0  0  0  0
 32 35  2  0  0  0  0
 32 34  1  0  0  0  0
 33 36  2  0  0  0  0
 33 37  1  0  0  0  0
 33 53  1  0  0  0  0
 34 37  2  0  0  0  0
 34 52  1  0  0  0  0
 35 36  1  0  0  0  0
 35 51  1  0  0  0  0
 36 38  1  0  0  0  0
 37 39  1  0  0  0  0
 40 43  2  0  0  0  0
 40 42  1  0  0  0  0
 41 44  2  0  0  0  0
 41 45  1  0  0  0  0
 41 50  1  0  0  0  0
 42 45  2  0  0  0  0
 42 46  1  0  0  0  0
 43 44  1  0  0  0  0
 43 47  1  0  0  0  0
 44 48  1  0  0  0  0
 45 49  1  0  0  0  0
 54 55  1  0  0  0  0
 54 56  1  0  0  0  0
 54 57  1  0  0  0  0
 58 59  1  0  0  0  0
 58 60  1  0  0  0  0
 58 61  1  0  0  0  0
 62 63  1  0  0  0  0
 62 64  1  0  0  0  0
 62 65  1  0  0  0  0
 66 67  1  0  0  0  0
 66 68  1  0  0  0  0
 66 69  1  0  0  0  0
  1 27  1  0  0  0  0
M  END
> <FrozenCore-PM6_ENERGY>
115.343

> <RMSD_CONF_CG-CS>
0.764720

> <RMSD_CONF_GO-CS>
0.000000

> <UID>


> <DESCRIPTOR_DEFINITION_1>
desc1=( echo "1 * ( e( $hartree_to_kcalmol * ( ( $freeEnergyZ - $freeEnergyD ) - ( $freeEnergyX + 2*$G_Ethene - $freeEnergyD - 2*$G_Propene ) - $DDG_reference_HGII ) / $kT ) ) " | bc -l )

> <DESCRIPTOR_DEFINITION_2>
desc1=( echo "1 * ( e( $hartree_to_kcalmol * ( ( $freeEnergyZ - $freeEnergyD ) - ( $freeEnergyX + 2*$G_Ethene - $freeEnergyD - 2*$G_Propene ) - $DDG_reference_HGII ) / $kT ) ) " | bc -l )

> <DESCRIPTOR_DEFINITION_3>
desc1=( echo "1 * ( e( $hartree_to_kcalmol * ( ( $freeEnergyZ - $freeEnergyD ) - ( $freeEnergyX + 2*$G_Ethene - $freeEnergyD - 2*$G_Propene ) - $DDG_reference_HGII ) / $kT ) ) " | bc -l )

> <WEIGHT_DEFINITION_1>
w1=$( echo "1 / ( 1 + e( $hartree_to_kcalmol * ( ( ( $freeEnergyX + 2*$G_Ethene - $freeEnergyD - 2*$G_Propene ) ) - ( $DG_referenceProductionBarrier + $magnitude4 ) ) / $kT ) )" | bc -l )

> <WEIGHT_DEFINITION_2>
w1=$( echo "1 / ( 1 + e( $hartree_to_kcalmol * ( ( ( $freeEnergyX + 2*$G_Ethene - $freeEnergyD - 2*$G_Propene ) ) - ( $DG_referenceProductionBarrier + $magnitude4 ) ) / $kT ) )" | bc -l )

> <WEIGHT_DEFINITION_3>
w1=$( echo "1 / ( 1 + e( $hartree_to_kcalmol * ( ( ( $freeEnergyX + 2*$G_Ethene - $freeEnergyD - 2*$G_Propene ) ) - ( $DG_referenceProductionBarrier + $magnitude4 ) ) / $kT ) )" | bc -l )

> <WEIGHT_DEFINITION_4>
w1=$( echo "1 / ( 1 + e( $hartree_to_kcalmol * ( ( ( $freeEnergyX + 2*$G_Ethene - $freeEnergyD - 2*$G_Propene ) ) - ( $DG_referenceProductionBarrier + $magnitude4 ) ) / $kT ) )" | bc -l )

> <CALCULATION_OF_OVERALL_FITNESS>
fitness=$( echo "( $desc1 + $desc2 + $desc3 ) * ( $w1 * $w2 * $w3 * $w4 )" | bc -l )

> <freeEnergyA>
-2323.60475435

> <freeEnergyF>
-2323.5876382

> <freeEnergyE>
-2323.60475435

> <freeEnergyC>
-1978.34303414

> <freeEnergyL>
-845.737333942

> <freeEnergyX>
-2056.87435747

> <freeEnergyZ>
-1978.33235224

> <freeEnergyD>
-1978.36672393

> <G_Propene>
-117.738020895

> <G_Ethene>
-78.4716324751

> <G_HoveydaProd>
-502.204109499

> <G_SIMes>
-924.27249048

> <G_HG_RuCl2_SIMes>
-2402.13728523

> <DG_referenceProductionBarrier>
0.01468968

> <DG_referencePrecursorStabilityHII>
-0.0052201621

> <DG_referencePrecursorStabilityHI>
0.0117775312

> <DDG_referencePrecursorStability>
.0169976933

> <DG_referenceSynt>
0.0226072217

> <hartree_to_kcalmol>
627.49467516

> <boltzmann_constant>
0.0000000000000000000000138066

> <avogadro_number>
602214000000000000000000

> <jmol_to_kcalmol>
0.00023901

> <temp>
313.15

> <kT>
.6223089948281258706000000000

> <magnitude1>
1.43290809

> <magnitude2>
2.86581618

> <magnitude3>
4.29872427

> <magnitude4>
5.73163236

> <DFT_IDENTIFIER>
1723574190762

> <DFT_MACHINE>
158.39.114.73

> <XTB_IDENTIFIER>
NREC

> <XTB_MACHINE>
NREC

> <DESCRIPTOR_1>
.00000202234110741187

> <DESCRIPTOR_2>
5.790765710798727432

> <DESCRIPTOR_3>
0.0000000001

> <WEIGHT_1>
.99819332952652450527

> <WEIGHT_2>
.99999831759039031705

> <WEIGHT_3>
.99999999999910835617

> <WEIGHT_4>
.99999680411885440403

> <FITNESS>
5.78027752617138446101

$$$$
