
  CDK     08132409123D

 61 64  0  0  0  0  0  0  0  0999 V2000
    0.6501    3.6123   -2.1440 C   0  0  0  0  0  0  0  0  0  0  0  0
   -0.3865    3.6365   -2.5250 H   0  0  0  0  0  0  0  0  0  0  0  0
    1.1884    4.5297   -2.4729 H   0  0  0  0  0  0  0  0  0  0  0  0
    1.1709    2.7533   -2.6094 H   0  0  0  0  0  0  0  0  0  0  0  0
    0.6961    3.5382   -0.6372 C   0  0  0  0  0  0  0  0  0  0  0  0
    1.7059    3.5127   -0.1855 H   0  0  0  0  0  0  0  0  0  0  0  0
   -0.3195    4.0730    0.1983 C   0  0  0  0  0  0  0  0  0  0  0  0
   -1.2649    4.3560   -0.2975 H   0  0  0  0  0  0  0  0  0  0  0  0
    0.0428    4.7780    1.4855 C   0  0  0  0  0  0  0  0  0  0  0  0
   -0.8258    4.9216    2.1554 H   0  0  0  0  0  0  0  0  0  0  0  0
    0.4433    5.7843    1.2352 H   0  0  0  0  0  0  0  0  0  0  0  0
    0.8319    4.2176    2.0250 H   0  0  0  0  0  0  0  0  0  0  0  0
   -1.3556    2.3204    1.3123 C   0  0  0  0  0  0  0  0  0  0  0  0
   -1.0251    2.4530    2.3653 H   0  0  0  0  0  0  0  0  0  0  0  0
   -2.4132    2.5620    1.0686 H   0  0  0  0  0  0  0  0  0  0  0  0
   -0.2189    1.6701    0.0325 Ru  0  0  0  0  0  0  0  0  0  0  0  0
    1.5870    1.5402    1.6334 Cl  0  0  0  0  0  0  0  0  0  0  0  0
   -1.9908    1.7065   -1.5972 Cl  0  0  0  0  0  0  0  0  0  0  0  0
   -0.1701   -0.3078    0.0492 C   0  0  0  0  0  0  0  0  0  0  0  0
    0.6888   -0.9669   -0.7611 N   0  0  0  0  0  0  0  0  0  0  0  0
    0.5441   -2.4515   -0.6436 C   0  0  0  0  0  0  0  0  0  0  0  0
   -0.0085   -2.5221    0.8322 C   0  0  0  0  0  0  0  0  0  0  0  0
   -0.7525   -1.2121    0.8823 N   0  0  0  0  0  0  0  0  0  0  0  0
    1.4349   -0.2867   -1.7749 C   0  0  0  0  0  0  0  0  0  0  0  0
    2.9458    0.9907   -3.7580 C   0  0  0  0  0  0  0  0  0  0  0  0
    0.8897   -0.1063   -3.0605 C   0  0  0  0  0  0  0  0  0  0  0  0
    2.7140    0.2116   -1.4655 C   0  0  0  0  0  0  0  0  0  0  0  0
    3.4660    0.8516   -2.4615 C   0  0  0  0  0  0  0  0  0  0  0  0
    1.6552    0.5218   -4.0530 C   0  0  0  0  0  0  0  0  0  0  0  0
    4.4629    1.2468   -2.2197 H   0  0  0  0  0  0  0  0  0  0  0  0
    1.2307    0.6652   -5.0567 H   0  0  0  0  0  0  0  0  0  0  0  0
   -1.8662   -0.9216    1.7151 C   0  0  0  0  0  0  0  0  0  0  0  0
   -4.1219   -0.3373    3.2966 C   0  0  0  0  0  0  0  0  0  0  0  0
   -3.0057   -0.3303    1.1320 C   0  0  0  0  0  0  0  0  0  0  0  0
   -1.8581   -1.2113    3.0928 C   0  0  0  0  0  0  0  0  0  0  0  0
   -2.9885   -0.9299    3.8733 C   0  0  0  0  0  0  0  0  0  0  0  0
   -4.1195   -0.0305    1.9268 C   0  0  0  0  0  0  0  0  0  0  0  0
   -2.9923   -0.0797    0.0606 H   0  0  0  0  0  0  0  0  0  0  0  0
   -0.9596   -1.6292    3.5625 H   0  0  0  0  0  0  0  0  0  0  0  0
   -2.9713   -1.1596    4.9484 H   0  0  0  0  0  0  0  0  0  0  0  0
   -4.9978    0.4409    1.4622 H   0  0  0  0  0  0  0  0  0  0  0  0
   -5.0024   -0.1111    3.9149 H   0  0  0  0  0  0  0  0  0  0  0  0
    3.0830    0.1185   -0.4356 H   0  0  0  0  0  0  0  0  0  0  0  0
   -0.1415   -0.4249   -3.2576 H   0  0  0  0  0  0  0  0  0  0  0  0
    3.5403    1.4878   -4.5382 H   0  0  0  0  0  0  0  0  0  0  0  0
    1.8846   -3.1498   -0.8581 C   0  0  0  0  0  0  0  0  0  0  0  0
    2.6836   -2.7285   -0.2226 H   0  0  0  0  0  0  0  0  0  0  0  0
    2.1989   -3.0420   -1.9147 H   0  0  0  0  0  0  0  0  0  0  0  0
    1.7908   -4.2331   -0.6437 H   0  0  0  0  0  0  0  0  0  0  0  0
   -0.4783   -2.9347   -1.6846 C   0  0  0  0  0  0  0  0  0  0  0  0
   -0.6339   -4.0288   -1.6142 H   0  0  0  0  0  0  0  0  0  0  0  0
   -0.1030   -2.7161   -2.7028 H   0  0  0  0  0  0  0  0  0  0  0  0
   -1.4521   -2.4237   -1.5560 H   0  0  0  0  0  0  0  0  0  0  0  0
    1.1332   -2.4778    1.8628 C   0  0  0  0  0  0  0  0  0  0  0  0
    1.7575   -1.5735    1.7228 H   0  0  0  0  0  0  0  0  0  0  0  0
    1.7664   -3.3833    1.7917 H   0  0  0  0  0  0  0  0  0  0  0  0
    0.7219   -2.4450    2.8883 H   0  0  0  0  0  0  0  0  0  0  0  0
   -0.9304   -3.7115    1.0849 C   0  0  0  0  0  0  0  0  0  0  0  0
   -0.3851   -4.6550    0.8831 H   0  0  0  0  0  0  0  0  0  0  0  0
   -1.8355   -3.6816    0.4519 H   0  0  0  0  0  0  0  0  0  0  0  0
   -1.2585   -3.7326    2.1411 H   0  0  0  0  0  0  0  0  0  0  0  0
  1  2  1  0  0  0  0
  1  5  1  0  0  0  0
  3  1  1  0  0  0  0
  4  1  1  0  0  0  0
  5  6  1  0  0  0  0
  5 16  1  0  0  0  0
  5  7  1  0  0  0  0
  7  9  1  0  0  0  0
  7  8  1  0  0  0  0
  9 10  1  0  0  0  0
 11  9  1  0  0  0  0
 12  9  1  0  0  0  0
 13 14  1  0  0  0  0
 13 15  1  0  0  0  0
 13  7  1  0  0  0  0
 16 13  1  0  0  0  0
 16 17  1  0  0  0  0
 16 18  1  0  0  0  0
 19 20  1  0  0  0  0
 19 23  1  0  0  0  0
 20 21  1  0  0  0  0
 20 24  1  0  0  0  0
 21 46  1  0  0  0  0
 21 50  1  0  0  0  0
 22 23  1  0  0  0  0
 21 22  1  0  0  0  0
 22 54  1  0  0  0  0
 22 58  1  0  0  0  0
 23 32  1  0  0  0  0
 24 27  2  0  0  0  0
 24 26  1  0  0  0  0
 25 28  2  0  0  0  0
 25 29  1  0  0  0  0
 25 45  1  0  0  0  0
 26 29  2  0  0  0  0
 26 44  1  0  0  0  0
 27 28  1  0  0  0  0
 27 43  1  0  0  0  0
 28 30  1  0  0  0  0
 29 31  1  0  0  0  0
 32 35  2  0  0  0  0
 32 34  1  0  0  0  0
 33 36  2  0  0  0  0
 33 37  1  0  0  0  0
 33 42  1  0  0  0  0
 34 37  2  0  0  0  0
 34 38  1  0  0  0  0
 35 36  1  0  0  0  0
 35 39  1  0  0  0  0
 36 40  1  0  0  0  0
 37 41  1  0  0  0  0
 46 47  1  0  0  0  0
 46 48  1  0  0  0  0
 46 49  1  0  0  0  0
 50 51  1  0  0  0  0
 50 52  1  0  0  0  0
 50 53  1  0  0  0  0
 54 55  1  0  0  0  0
 54 56  1  0  0  0  0
 54 57  1  0  0  0  0
 58 59  1  0  0  0  0
 58 60  1  0  0  0  0
 58 61  1  0  0  0  0
 16 19  1  0  0  0  0
M  END
>  <DFT-ENERGY>
-2056.87435787

$$$$
