
  CDK     08132413253D

 84 89  0  0  0  0  0  0  0  0999 V2000
   -0.4360   -4.3513   -1.6802 C   0  0  0  0  0  0  0  0  0  0  0  0
   -1.4457   -4.0809   -2.0375 H   0  0  0  0  0  0  0  0  0  0  0  0
   -0.1909   -5.3860   -2.0093 H   0  0  0  0  0  0  0  0  0  0  0  0
    0.2974   -3.6817   -2.1736 H   0  0  0  0  0  0  0  0  0  0  0  0
   -0.3281   -4.2811   -0.1741 C   0  0  0  0  0  0  0  0  0  0  0  0
    0.6748   -4.4892    0.2437 H   0  0  0  0  0  0  0  0  0  0  0  0
   -1.4079   -4.5876    0.6943 C   0  0  0  0  0  0  0  0  0  0  0  0
   -2.4095   -4.6472    0.2328 H   0  0  0  0  0  0  0  0  0  0  0  0
   -1.1667   -5.3805    1.9592 C   0  0  0  0  0  0  0  0  0  0  0  0
   -2.0191   -5.3383    2.6630 H   0  0  0  0  0  0  0  0  0  0  0  0
   -1.0147   -6.4459    1.6809 H   0  0  0  0  0  0  0  0  0  0  0  0
   -0.2507   -5.0263    2.4720 H   0  0  0  0  0  0  0  0  0  0  0  0
   -2.0073   -2.6840    1.8789 C   0  0  0  0  0  0  0  0  0  0  0  0
   -1.6839   -2.9198    2.9163 H   0  0  0  0  0  0  0  0  0  0  0  0
   -3.1014   -2.6751    1.6759 H   0  0  0  0  0  0  0  0  0  0  0  0
   -0.7989   -2.2633    0.5712 Ru  0  0  0  0  0  0  0  0  0  0  0  0
    1.1122   -2.5803    2.0030 Cl  0  0  0  0  0  0  0  0  0  0  0  0
   -2.5652   -1.9376   -1.0248 Cl  0  0  0  0  0  0  0  0  0  0  0  0
   -0.4420   -0.3094    0.6539 C   0  0  0  0  0  0  0  0  0  0  0  0
   -0.9008    0.6177    1.5288 N   0  0  0  0  0  0  0  0  0  0  0  0
   -0.4078    1.9844    1.1852 C   0  0  0  0  0  0  0  0  0  0  0  0
    0.7164    1.6731    0.1452 C   0  0  0  0  0  0  0  0  0  0  0  0
    0.4257    0.2738   -0.2035 N   0  0  0  0  0  0  0  0  0  0  0  0
   -1.7368    0.3694    2.6694 C   0  0  0  0  0  0  0  0  0  0  0  0
   -3.3304   -0.1288    4.9453 C   0  0  0  0  0  0  0  0  0  0  0  0
   -1.1159    0.2117    3.9355 C   0  0  0  0  0  0  0  0  0  0  0  0
   -3.1431    0.2984    2.5253 C   0  0  0  0  0  0  0  0  0  0  0  0
   -3.9094    0.0360    3.6789 C   0  0  0  0  0  0  0  0  0  0  0  0
   -1.9311   -0.0299    5.0521 C   0  0  0  0  0  0  0  0  0  0  0  0
   -5.0033   -0.0353    3.5731 H   0  0  0  0  0  0  0  0  0  0  0  0
   -1.4512   -0.1581    6.0351 H   0  0  0  0  0  0  0  0  0  0  0  0
    0.0358    2.4404    2.0920 H   0  0  0  0  0  0  0  0  0  0  0  0
    0.5943    2.3291   -0.7400 H   0  0  0  0  0  0  0  0  0  0  0  0
   -3.8409    0.5021    1.2085 C   0  0  0  0  0  0  0  0  0  0  0  0
   -4.0014    1.5824    1.0138 H   0  0  0  0  0  0  0  0  0  0  0  0
   -4.8347    0.0148    1.2231 H   0  0  0  0  0  0  0  0  0  0  0  0
   -3.2733    0.0789    0.3588 H   0  0  0  0  0  0  0  0  0  0  0  0
    0.3797    0.2482    4.0845 C   0  0  0  0  0  0  0  0  0  0  0  0
    0.8351   -0.6140    3.5516 H   0  0  0  0  0  0  0  0  0  0  0  0
    0.6678    0.1931    5.1511 H   0  0  0  0  0  0  0  0  0  0  0  0
    0.8310    1.1662    3.6572 H   0  0  0  0  0  0  0  0  0  0  0  0
   -4.1747   -0.4032    6.1645 C   0  0  0  0  0  0  0  0  0  0  0  0
   -3.8732   -1.3507    6.6572 H   0  0  0  0  0  0  0  0  0  0  0  0
   -5.2488   -0.4784    5.9087 H   0  0  0  0  0  0  0  0  0  0  0  0
   -4.0604    0.4008    6.9211 H   0  0  0  0  0  0  0  0  0  0  0  0
    0.8804   -0.4206   -1.4118 C   0  0  0  0  0  0  0  0  0  0  0  0
    0.5231   -0.7405   -3.9001 C   0  0  0  0  0  0  0  0  0  0  0  0
    2.7972   -1.1519   -2.8763 C   0  0  0  0  0  0  0  0  0  0  0  0
    2.0391   -0.6721   -4.1203 C   0  0  0  0  0  0  0  0  0  0  0  0
    2.3971   -0.3596   -1.6239 C   0  0  0  0  0  0  0  0  0  0  0  0
    0.0969    0.0409   -2.6510 C   0  0  0  0  0  0  0  0  0  0  0  0
    0.2125   -1.8021   -3.7775 H   0  0  0  0  0  0  0  0  0  0  0  0
    2.5783   -2.2310   -2.7076 H   0  0  0  0  0  0  0  0  0  0  0  0
    2.3318    0.3791   -4.3437 H   0  0  0  0  0  0  0  0  0  0  0  0
    2.7094    0.7020   -1.7368 H   0  0  0  0  0  0  0  0  0  0  0  0
    0.2843    1.1273   -2.8086 H   0  0  0  0  0  0  0  0  0  0  0  0
    0.6164   -1.4943   -1.2372 H   0  0  0  0  0  0  0  0  0  0  0  0
   -0.0226   -0.3596   -4.7876 H   0  0  0  0  0  0  0  0  0  0  0  0
    3.8931   -1.0779   -3.0304 H   0  0  0  0  0  0  0  0  0  0  0  0
    2.3297   -1.2744   -5.0059 H   0  0  0  0  0  0  0  0  0  0  0  0
    2.9138   -0.7503   -0.7259 H   0  0  0  0  0  0  0  0  0  0  0  0
   -0.9848   -0.1011   -2.4513 H   0  0  0  0  0  0  0  0  0  0  0  0
    2.1053    1.8713    0.7287 C   0  0  0  0  0  0  0  0  0  0  0  0
    4.6214    2.3337    1.9068 C   0  0  0  0  0  0  0  0  0  0  0  0
    2.7623    3.1011    0.5440 C   0  0  0  0  0  0  0  0  0  0  0  0
    2.7165    0.8694    1.5055 C   0  0  0  0  0  0  0  0  0  0  0  0
    3.9694    1.1040    2.0901 C   0  0  0  0  0  0  0  0  0  0  0  0
    4.0153    3.3333    1.1303 C   0  0  0  0  0  0  0  0  0  0  0  0
    2.2873    3.8838   -0.0683 H   0  0  0  0  0  0  0  0  0  0  0  0
    2.2211   -0.1051    1.6395 H   0  0  0  0  0  0  0  0  0  0  0  0
    4.4398    0.3125    2.6916 H   0  0  0  0  0  0  0  0  0  0  0  0
    4.5227    4.2966    0.9744 H   0  0  0  0  0  0  0  0  0  0  0  0
    5.6056    2.5117    2.3641 H   0  0  0  0  0  0  0  0  0  0  0  0
   -1.5290    2.8692    0.6839 C   0  0  0  0  0  0  0  0  0  0  0  0
   -3.7037    4.4457   -0.1702 C   0  0  0  0  0  0  0  0  0  0  0  0
   -2.1115    3.8093    1.5510 C   0  0  0  0  0  0  0  0  0  0  0  0
   -2.0459    2.7245   -0.6185 C   0  0  0  0  0  0  0  0  0  0  0  0
   -3.1232    3.5114   -1.0441 C   0  0  0  0  0  0  0  0  0  0  0  0
   -3.1968    4.5924    1.1295 C   0  0  0  0  0  0  0  0  0  0  0  0
   -1.7151    3.9181    2.5721 H   0  0  0  0  0  0  0  0  0  0  0  0
   -1.6247    1.9691   -1.2969 H   0  0  0  0  0  0  0  0  0  0  0  0
   -3.5218    3.3854   -2.0610 H   0  0  0  0  0  0  0  0  0  0  0  0
   -3.6472    5.3207    1.8194 H   0  0  0  0  0  0  0  0  0  0  0  0
   -4.5535    5.0587   -0.5037 H   0  0  0  0  0  0  0  0  0  0  0  0
  1  2  1  0  0  0  0
  1  5  1  0  0  0  0
  1  3  1  0  0  0  0
  1  4  1  0  0  0  0
  5  6  1  0  0  0  0
  5 16  1  0  0  0  0
  5  7  1  0  0  0  0
  7  9  1  0  0  0  0
  7  8  1  0  0  0  0
  9 10  1  0  0  0  0
  9 11  1  0  0  0  0
  9 12  1  0  0  0  0
 13 14  1  0  0  0  0
 13 15  1  0  0  0  0
  7 13  1  0  0  0  0
 13 16  1  0  0  0  0
 16 17  1  0  0  0  0
 16 18  1  0  0  0  0
 19 20  1  0  0  0  0
 19 23  1  0  0  0  0
 20 21  1  0  0  0  0
 22 23  1  0  0  0  0
 24 27  2  0  0  0  0
 27 28  1  0  0  0  0
 25 28  2  0  0  0  0
 25 29  1  0  0  0  0
 26 29  2  0  0  0  0
 24 26  1  0  0  0  0
 28 30  1  0  0  0  0
 29 31  1  0  0  0  0
 20 24  1  0  0  0  0
 21 22  1  0  0  0  0
 21 32  1  0  0  0  0
 22 33  1  0  0  0  0
 34 35  1  0  0  0  0
 34 36  1  0  0  0  0
 34 37  1  0  0  0  0
 27 34  1  0  0  0  0
 38 39  1  0  0  0  0
 38 40  1  0  0  0  0
 38 41  1  0  0  0  0
 26 38  1  0  0  0  0
 42 43  1  0  0  0  0
 42 44  1  0  0  0  0
 42 45  1  0  0  0  0
 25 42  1  0  0  0  0
 46 57  1  0  0  0  0
 46 50  1  0  0  0  0
 46 51  1  0  0  0  0
 47 52  1  0  0  0  0
 47 58  1  0  0  0  0
 47 49  1  0  0  0  0
 47 51  1  0  0  0  0
 48 53  1  0  0  0  0
 48 59  1  0  0  0  0
 48 50  1  0  0  0  0
 48 49  1  0  0  0  0
 49 54  1  0  0  0  0
 49 60  1  0  0  0  0
 50 55  1  0  0  0  0
 50 61  1  0  0  0  0
 51 56  1  0  0  0  0
 51 62  1  0  0  0  0
 23 46  1  0  0  0  0
 63 66  2  0  0  0  0
 66 67  1  0  0  0  0
 64 67  2  0  0  0  0
 64 68  1  0  0  0  0
 65 68  2  0  0  0  0
 63 65  1  0  0  0  0
 67 71  1  0  0  0  0
 68 72  1  0  0  0  0
 64 73  1  0  0  0  0
 65 69  1  0  0  0  0
 66 70  1  0  0  0  0
 22 63  1  0  0  0  0
 74 77  2  0  0  0  0
 77 78  1  0  0  0  0
 75 78  2  0  0  0  0
 75 79  1  0  0  0  0
 76 79  2  0  0  0  0
 74 76  1  0  0  0  0
 78 82  1  0  0  0  0
 79 83  1  0  0  0  0
 75 84  1  0  0  0  0
 76 80  1  0  0  0  0
 77 81  1  0  0  0  0
 21 74  1  0  0  0  0
 16 19  1  0  0  0  0
M  END
>  <DFT-ENERGY>
-2482.80576415

$$$$
