
  CDK     08142423293D

 78 83  0  0  0  0  0  0  0  0999 V2000
    2.2697    1.1419   -0.1400 Ru  0  0  0  0  0  0  0  0  0  0  0  0
    3.9202    1.1656   -1.2044 C   0  0  0  0  0  0  0  0  0  0  0  0
    3.8209    1.5905   -2.2195 H   0  0  0  0  0  0  0  0  0  0  0  0
    4.2251    2.2601   -0.1048 C   0  0  0  0  0  0  0  0  0  0  0  0
    4.3670    3.2166   -0.6395 H   0  0  0  0  0  0  0  0  0  0  0  0
    3.1007    2.5092    0.9817 C   0  0  0  0  0  0  0  0  0  0  0  0
    3.3918    2.1752    1.9941 H   0  0  0  0  0  0  0  0  0  0  0  0
    2.6400    3.5113    0.9144 H   0  0  0  0  0  0  0  0  0  0  0  0
    5.1165    1.9075    0.4452 H   0  0  0  0  0  0  0  0  0  0  0  0
    4.5617    0.2709   -1.1119 H   0  0  0  0  0  0  0  0  0  0  0  0
    1.3753    2.8153   -1.5970 Cl  0  0  0  0  0  0  0  0  0  0  0  0
    3.2536   -0.6079    1.1657 Cl  0  0  0  0  0  0  0  0  0  0  0  0
    0.5319    0.1925   -0.1525 C   0  0  0  0  0  0  0  0  0  0  0  0
   -0.5555    0.5524    0.5638 N   0  0  0  0  0  0  0  0  0  0  0  0
   -1.6624   -0.4330    0.3767 C   0  0  0  0  0  0  0  0  0  0  0  0
   -1.1961   -1.1754   -0.9141 C   0  0  0  0  0  0  0  0  0  0  0  0
    0.2508   -0.8779   -0.9235 N   0  0  0  0  0  0  0  0  0  0  0  0
   -0.5995    1.6462    1.4973 C   0  0  0  0  0  0  0  0  0  0  0  0
   -0.6724    3.8453    3.2641 C   0  0  0  0  0  0  0  0  0  0  0  0
   -1.2668    2.8357    1.1042 C   0  0  0  0  0  0  0  0  0  0  0  0
   -0.0042    1.5240    2.7761 C   0  0  0  0  0  0  0  0  0  0  0  0
   -0.0407    2.6475    3.6261 C   0  0  0  0  0  0  0  0  0  0  0  0
   -1.2937    3.9114    2.0036 C   0  0  0  0  0  0  0  0  0  0  0  0
    0.4350    2.5670    4.6160 H   0  0  0  0  0  0  0  0  0  0  0  0
   -1.8038    4.8384    1.6981 H   0  0  0  0  0  0  0  0  0  0  0  0
   -2.6013    0.1198    0.1797 H   0  0  0  0  0  0  0  0  0  0  0  0
   -1.3591   -2.2629   -0.7913 H   0  0  0  0  0  0  0  0  0  0  0  0
    0.6130    0.2495    3.2852 C   0  0  0  0  0  0  0  0  0  0  0  0
   -0.1574   -0.3779    3.7801 H   0  0  0  0  0  0  0  0  0  0  0  0
    1.3937    0.4760    4.0363 H   0  0  0  0  0  0  0  0  0  0  0  0
    1.0898   -0.3518    2.4917 H   0  0  0  0  0  0  0  0  0  0  0  0
   -1.8891    2.9805   -0.2569 C   0  0  0  0  0  0  0  0  0  0  0  0
   -1.0881    3.0330   -1.0240 H   0  0  0  0  0  0  0  0  0  0  0  0
   -2.4902    3.9073   -0.3145 H   0  0  0  0  0  0  0  0  0  0  0  0
   -2.5449    2.1295   -0.5271 H   0  0  0  0  0  0  0  0  0  0  0  0
   -0.6873    5.0356    4.1895 C   0  0  0  0  0  0  0  0  0  0  0  0
   -1.7181    5.4162    4.3414 H   0  0  0  0  0  0  0  0  0  0  0  0
   -0.0949    5.8747    3.7679 H   0  0  0  0  0  0  0  0  0  0  0  0
   -0.2627    4.7876    5.1810 H   0  0  0  0  0  0  0  0  0  0  0  0
    1.2568   -1.5214   -1.7839 C   0  0  0  0  0  0  0  0  0  0  0  0
    2.1440   -3.6851   -2.7073 C   0  0  0  0  0  0  0  0  0  0  0  0
    2.5853   -1.5032   -3.9169 C   0  0  0  0  0  0  0  0  0  0  0  0
    2.3673   -3.0145   -4.0696 C   0  0  0  0  0  0  0  0  0  0  0  0
    1.4239   -0.8498   -3.1575 C   0  0  0  0  0  0  0  0  0  0  0  0
    0.9943   -3.0238   -1.9325 C   0  0  0  0  0  0  0  0  0  0  0  0
    3.0744   -3.6079   -2.1019 H   0  0  0  0  0  0  0  0  0  0  0  0
    3.5331   -1.3216   -3.3608 H   0  0  0  0  0  0  0  0  0  0  0  0
    1.4762   -3.1897   -4.7140 H   0  0  0  0  0  0  0  0  0  0  0  0
    0.4849   -0.9591   -3.7401 H   0  0  0  0  0  0  0  0  0  0  0  0
    0.0398   -3.1818   -2.4834 H   0  0  0  0  0  0  0  0  0  0  0  0
    2.2078   -1.4028   -1.2160 H   0  0  0  0  0  0  0  0  0  0  0  0
    1.9386   -4.7679   -2.8338 H   0  0  0  0  0  0  0  0  0  0  0  0
    2.7066   -1.0235   -4.9096 H   0  0  0  0  0  0  0  0  0  0  0  0
    3.2291   -3.4825   -4.5892 H   0  0  0  0  0  0  0  0  0  0  0  0
    1.5958    0.2378   -3.0202 H   0  0  0  0  0  0  0  0  0  0  0  0
    0.8832   -3.4913   -0.9318 H   0  0  0  0  0  0  0  0  0  0  0  0
   -1.9170   -0.6966   -2.1612 C   0  0  0  0  0  0  0  0  0  0  0  0
   -3.3644    0.2129   -4.4002 C   0  0  0  0  0  0  0  0  0  0  0  0
   -2.9727   -1.4629   -2.6861 C   0  0  0  0  0  0  0  0  0  0  0  0
   -1.5839    0.5292   -2.7694 C   0  0  0  0  0  0  0  0  0  0  0  0
   -2.3075    0.9791   -3.8822 C   0  0  0  0  0  0  0  0  0  0  0  0
   -3.6952   -1.0117   -3.8010 C   0  0  0  0  0  0  0  0  0  0  0  0
   -3.2297   -2.4253   -2.2160 H   0  0  0  0  0  0  0  0  0  0  0  0
   -0.7446    1.1301   -2.3870 H   0  0  0  0  0  0  0  0  0  0  0  0
   -2.0360    1.9364   -4.3502 H   0  0  0  0  0  0  0  0  0  0  0  0
   -4.5150   -1.6225   -4.2062 H   0  0  0  0  0  0  0  0  0  0  0  0
   -3.9262    0.5676   -5.2765 H   0  0  0  0  0  0  0  0  0  0  0  0
   -1.8382   -1.3046    1.6011 C   0  0  0  0  0  0  0  0  0  0  0  0
   -2.1216   -2.8175    3.9623 C   0  0  0  0  0  0  0  0  0  0  0  0
   -2.8562   -1.0038    2.5227 C   0  0  0  0  0  0  0  0  0  0  0  0
   -0.9591   -2.3717    1.8736 C   0  0  0  0  0  0  0  0  0  0  0  0
   -1.1039   -3.1260    3.0445 C   0  0  0  0  0  0  0  0  0  0  0  0
   -2.9969   -1.7530    3.7005 C   0  0  0  0  0  0  0  0  0  0  0  0
   -3.5388   -0.1652    2.3169 H   0  0  0  0  0  0  0  0  0  0  0  0
   -0.1315   -2.5922    1.1838 H   0  0  0  0  0  0  0  0  0  0  0  0
   -0.4083   -3.9523    3.2494 H   0  0  0  0  0  0  0  0  0  0  0  0
   -3.7946   -1.5046    4.4154 H   0  0  0  0  0  0  0  0  0  0  0  0
   -2.2304   -3.4076    4.8837 H   0  0  0  0  0  0  0  0  0  0  0  0
  2  4  1  0  0  0  0
  2  1  1  0  0  0  0
  2  3  1  0  0  0  0
  4  6  1  0  0  0  0
  4  5  1  0  0  0  0
  6  1  1  0  0  0  0
  6  8  1  0  0  0  0
  7  6  1  0  0  0  0
  9  4  1  0  0  0  0
 10  2  1  0  0  0  0
  1 11  1  0  0  0  0
  1 12  1  0  0  0  0
 13 14  1  0  0  0  0
 13 17  1  0  0  0  0
 14 15  1  0  0  0  0
 16 17  1  0  0  0  0
 18 21  2  0  0  0  0
 21 22  1  0  0  0  0
 19 22  2  0  0  0  0
 19 23  1  0  0  0  0
 20 23  2  0  0  0  0
 18 20  1  0  0  0  0
 22 24  1  0  0  0  0
 23 25  1  0  0  0  0
 14 18  1  0  0  0  0
 15 16  1  0  0  0  0
 15 26  1  0  0  0  0
 16 27  1  0  0  0  0
 28 29  1  0  0  0  0
 28 30  1  0  0  0  0
 28 31  1  0  0  0  0
 21 28  1  0  0  0  0
 32 33  1  0  0  0  0
 32 34  1  0  0  0  0
 32 35  1  0  0  0  0
 20 32  1  0  0  0  0
 36 37  1  0  0  0  0
 36 38  1  0  0  0  0
 36 39  1  0  0  0  0
 19 36  1  0  0  0  0
 40 51  1  0  0  0  0
 40 44  1  0  0  0  0
 40 45  1  0  0  0  0
 41 46  1  0  0  0  0
 41 52  1  0  0  0  0
 41 43  1  0  0  0  0
 41 45  1  0  0  0  0
 42 47  1  0  0  0  0
 42 53  1  0  0  0  0
 42 44  1  0  0  0  0
 42 43  1  0  0  0  0
 43 48  1  0  0  0  0
 43 54  1  0  0  0  0
 44 49  1  0  0  0  0
 44 55  1  0  0  0  0
 45 50  1  0  0  0  0
 45 56  1  0  0  0  0
 17 40  1  0  0  0  0
 57 60  2  0  0  0  0
 60 61  1  0  0  0  0
 58 61  2  0  0  0  0
 58 62  1  0  0  0  0
 59 62  2  0  0  0  0
 57 59  1  0  0  0  0
 61 65  1  0  0  0  0
 62 66  1  0  0  0  0
 58 67  1  0  0  0  0
 59 63  1  0  0  0  0
 60 64  1  0  0  0  0
 16 57  1  0  0  0  0
 68 71  2  0  0  0  0
 71 72  1  0  0  0  0
 69 72  2  0  0  0  0
 69 73  1  0  0  0  0
 70 73  2  0  0  0  0
 68 70  1  0  0  0  0
 72 76  1  0  0  0  0
 73 77  1  0  0  0  0
 69 78  1  0  0  0  0
 70 74  1  0  0  0  0
 71 75  1  0  0  0  0
 15 68  1  0  0  0  0
  1 13  1  0  0  0  0
M  END
>  <DFT-ENERGY>
-2404.29783035

$$$$
