
  CDK     08142419453D

 78 84  0  0  0  0  0  0  0  0999 V2000
   -1.5689   -1.4250   -3.8157 H   0  0  0  0  0  0  0  0  0  0  0  0
   -2.7829   -1.6255   -3.8258 C   0  0  0  0  0  0  0  0  0  0  0  0
   -2.7298   -1.8215   -4.9189 H   0  0  0  0  0  0  0  0  0  0  0  0
   -2.8938   -2.7034   -2.7980 C   0  0  0  0  0  0  0  0  0  0  0  0
   -3.8455   -2.7841   -2.2472 H   0  0  0  0  0  0  0  0  0  0  0  0
   -2.4201   -3.6665   -3.0587 H   0  0  0  0  0  0  0  0  0  0  0  0
   -1.6448   -1.2256   -2.0548 Ru  0  0  0  0  0  0  0  0  0  0  0  0
   -3.1913   -0.3304   -3.2642 C   0  0  0  0  0  0  0  0  0  0  0  0
   -4.1163   -0.2725   -2.6772 H   0  0  0  0  0  0  0  0  0  0  0  0
   -2.9157    0.5803   -3.8228 H   0  0  0  0  0  0  0  0  0  0  0  0
   -3.3617   -0.7647   -0.3688 Cl  0  0  0  0  0  0  0  0  0  0  0  0
    0.3839   -2.2430   -2.9023 Cl  0  0  0  0  0  0  0  0  0  0  0  0
   -0.7759   -1.4079   -0.2025 C   0  0  0  0  0  0  0  0  0  0  0  0
   -0.3741   -0.3799    0.6005 N   0  0  0  0  0  0  0  0  0  0  0  0
    0.5470   -0.8678    1.6603 C   0  0  0  0  0  0  0  0  0  0  0  0
    0.2273   -2.3902    1.6777 C   0  0  0  0  0  0  0  0  0  0  0  0
   -0.4112   -2.5781    0.3586 N   0  0  0  0  0  0  0  0  0  0  0  0
   -0.6644    1.0176    0.4732 C   0  0  0  0  0  0  0  0  0  0  0  0
   -1.1155    3.8123    0.3085 C   0  0  0  0  0  0  0  0  0  0  0  0
   -1.2969    1.6922    1.5475 C   0  0  0  0  0  0  0  0  0  0  0  0
   -0.3115    1.7212   -0.7019 C   0  0  0  0  0  0  0  0  0  0  0  0
   -0.5453    3.1049   -0.7613 C   0  0  0  0  0  0  0  0  0  0  0  0
   -1.4940    3.0802    1.4445 C   0  0  0  0  0  0  0  0  0  0  0  0
   -0.2662    3.6436   -1.6804 H   0  0  0  0  0  0  0  0  0  0  0  0
   -1.9903    3.5994    2.2795 H   0  0  0  0  0  0  0  0  0  0  0  0
    0.2832   -0.4186    2.6334 H   0  0  0  0  0  0  0  0  0  0  0  0
    1.1770   -2.9561    1.7172 H   0  0  0  0  0  0  0  0  0  0  0  0
    0.2344    1.0076   -1.8954 C   0  0  0  0  0  0  0  0  0  0  0  0
    1.0024    0.2530   -1.6556 H   0  0  0  0  0  0  0  0  0  0  0  0
    0.6413    1.7121   -2.6450 H   0  0  0  0  0  0  0  0  0  0  0  0
   -0.5966    0.4724   -2.4610 H   0  0  0  0  0  0  0  0  0  0  0  0
   -1.8248    0.9677    2.7571 C   0  0  0  0  0  0  0  0  0  0  0  0
   -2.2540   -0.0102    2.4750 H   0  0  0  0  0  0  0  0  0  0  0  0
   -2.6177    1.5658    3.2446 H   0  0  0  0  0  0  0  0  0  0  0  0
   -1.0449    0.7807    3.5268 H   0  0  0  0  0  0  0  0  0  0  0  0
   -1.3094    5.3058    0.2416 C   0  0  0  0  0  0  0  0  0  0  0  0
   -0.4075    5.8416    0.6088 H   0  0  0  0  0  0  0  0  0  0  0  0
   -2.1620    5.6338    0.8680 H   0  0  0  0  0  0  0  0  0  0  0  0
   -1.4911    5.6473   -0.7964 H   0  0  0  0  0  0  0  0  0  0  0  0
   -0.6713   -3.9090   -0.2190 C   0  0  0  0  0  0  0  0  0  0  0  0
    0.2602   -6.1831   -0.7332 C   0  0  0  0  0  0  0  0  0  0  0  0
   -2.2402   -5.8464   -0.5200 C   0  0  0  0  0  0  0  0  0  0  0  0
   -1.0729   -6.8225   -0.3226 C   0  0  0  0  0  0  0  0  0  0  0  0
   -2.0018   -4.5310    0.2343 C   0  0  0  0  0  0  0  0  0  0  0  0
    0.5047   -4.8642    0.0144 C   0  0  0  0  0  0  0  0  0  0  0  0
    0.2508   -5.9770   -1.8266 H   0  0  0  0  0  0  0  0  0  0  0  0
   -2.3573   -5.6312   -1.6060 H   0  0  0  0  0  0  0  0  0  0  0  0
   -1.0220   -7.1172    0.7502 H   0  0  0  0  0  0  0  0  0  0  0  0
   -1.9775   -4.7313    1.3256 H   0  0  0  0  0  0  0  0  0  0  0  0
    0.6147   -5.0769    1.1017 H   0  0  0  0  0  0  0  0  0  0  0  0
   -0.7332   -3.7259   -1.3080 H   0  0  0  0  0  0  0  0  0  0  0  0
    1.1019   -6.8824   -0.5502 H   0  0  0  0  0  0  0  0  0  0  0  0
   -3.1938   -6.3054   -0.1870 H   0  0  0  0  0  0  0  0  0  0  0  0
   -1.2448   -7.7559   -0.8980 H   0  0  0  0  0  0  0  0  0  0  0  0
   -2.8207   -3.8072    0.0478 H   0  0  0  0  0  0  0  0  0  0  0  0
    1.4451   -4.3889   -0.3334 H   0  0  0  0  0  0  0  0  0  0  0  0
   -0.6545   -2.8024    2.8409 C   0  0  0  0  0  0  0  0  0  0  0  0
   -2.2357   -3.4662    5.0764 C   0  0  0  0  0  0  0  0  0  0  0  0
   -0.0705   -3.3882    3.9777 C   0  0  0  0  0  0  0  0  0  0  0  0
   -2.0412   -2.5566    2.8265 C   0  0  0  0  0  0  0  0  0  0  0  0
   -2.8246   -2.8868    3.9406 C   0  0  0  0  0  0  0  0  0  0  0  0
   -0.8559   -3.7190    5.0925 C   0  0  0  0  0  0  0  0  0  0  0  0
    1.0122   -3.5898    3.9870 H   0  0  0  0  0  0  0  0  0  0  0  0
   -2.5113   -2.1243    1.9290 H   0  0  0  0  0  0  0  0  0  0  0  0
   -3.9070   -2.6935    3.9178 H   0  0  0  0  0  0  0  0  0  0  0  0
   -0.3886   -4.1822    5.9737 H   0  0  0  0  0  0  0  0  0  0  0  0
   -2.8544   -3.7274    5.9472 H   0  0  0  0  0  0  0  0  0  0  0  0
    1.9884   -0.5387    1.3288 C   0  0  0  0  0  0  0  0  0  0  0  0
    4.6773    0.0693    0.7442 C   0  0  0  0  0  0  0  0  0  0  0  0
    2.7529    0.2359    2.2168 C   0  0  0  0  0  0  0  0  0  0  0  0
    2.5800   -1.0064    0.1367 C   0  0  0  0  0  0  0  0  0  0  0  0
    3.9172   -0.7030   -0.1503 C   0  0  0  0  0  0  0  0  0  0  0  0
    4.0926    0.5396    1.9285 C   0  0  0  0  0  0  0  0  0  0  0  0
    2.2896    0.6089    3.1433 H   0  0  0  0  0  0  0  0  0  0  0  0
    1.9916   -1.6005   -0.5807 H   0  0  0  0  0  0  0  0  0  0  0  0
    4.3669   -1.0697   -1.0844 H   0  0  0  0  0  0  0  0  0  0  0  0
    4.6789    1.1505    2.6303 H   0  0  0  0  0  0  0  0  0  0  0  0
    5.7259    0.3076    0.5140 H   0  0  0  0  0  0  0  0  0  0  0  0
  1  2  1  0  0  0  0
  1  7  1  0  0  0  0
  2  3  1  0  0  0  0
  2  4  1  0  0  0  0
  4  5  1  0  0  0  0
  4  6  1  0  0  0  0
  7  8  1  0  0  0  0
  4  7  1  0  0  0  0
  2  8  1  0  0  0  0
  8  9  1  0  0  0  0
  8 10  1  0  0  0  0
  7 11  1  0  0  0  0
  7 12  1  0  0  0  0
 13 14  1  0  0  0  0
 13 17  1  0  0  0  0
 14 15  1  0  0  0  0
 16 17  1  0  0  0  0
 18 21  2  0  0  0  0
 21 22  1  0  0  0  0
 19 22  2  0  0  0  0
 19 23  1  0  0  0  0
 20 23  2  0  0  0  0
 18 20  1  0  0  0  0
 22 24  1  0  0  0  0
 23 25  1  0  0  0  0
 14 18  1  0  0  0  0
 15 16  1  0  0  0  0
 15 26  1  0  0  0  0
 16 27  1  0  0  0  0
 28 29  1  0  0  0  0
 28 30  1  0  0  0  0
 28 31  1  0  0  0  0
 21 28  1  0  0  0  0
 32 33  1  0  0  0  0
 32 34  1  0  0  0  0
 32 35  1  0  0  0  0
 20 32  1  0  0  0  0
 36 37  1  0  0  0  0
 36 38  1  0  0  0  0
 36 39  1  0  0  0  0
 19 36  1  0  0  0  0
 40 51  1  0  0  0  0
 40 44  1  0  0  0  0
 40 45  1  0  0  0  0
 41 46  1  0  0  0  0
 41 52  1  0  0  0  0
 41 43  1  0  0  0  0
 41 45  1  0  0  0  0
 42 47  1  0  0  0  0
 42 53  1  0  0  0  0
 42 44  1  0  0  0  0
 42 43  1  0  0  0  0
 43 48  1  0  0  0  0
 43 54  1  0  0  0  0
 44 49  1  0  0  0  0
 44 55  1  0  0  0  0
 45 50  1  0  0  0  0
 45 56  1  0  0  0  0
 17 40  1  0  0  0  0
 57 60  2  0  0  0  0
 60 61  1  0  0  0  0
 58 61  2  0  0  0  0
 58 62  1  0  0  0  0
 59 62  2  0  0  0  0
 57 59  1  0  0  0  0
 61 65  1  0  0  0  0
 62 66  1  0  0  0  0
 58 67  1  0  0  0  0
 59 63  1  0  0  0  0
 60 64  1  0  0  0  0
 16 57  1  0  0  0  0
 68 71  2  0  0  0  0
 71 72  1  0  0  0  0
 69 72  2  0  0  0  0
 69 73  1  0  0  0  0
 70 73  2  0  0  0  0
 68 70  1  0  0  0  0
 72 76  1  0  0  0  0
 73 77  1  0  0  0  0
 69 78  1  0  0  0  0
 70 74  1  0  0  0  0
 71 75  1  0  0  0  0
 15 68  1  0  0  0  0
  7 13  1  0  0  0  0
M  END
>  <DFT-ENERGY>
-2404.25746462

$$$$
