
  CDK     07312422533D

 61 64  0  0  0  0  0  0  0  0999 V2000
   -0.6522    3.6133   -2.1415 C   0  0  0  0  0  0  0  0  0  0  0  0
    0.3840    3.6374   -2.5235 H   0  0  0  0  0  0  0  0  0  0  0  0
   -1.1906    4.5310   -2.4695 H   0  0  0  0  0  0  0  0  0  0  0  0
   -1.1737    2.7546   -2.6069 H   0  0  0  0  0  0  0  0  0  0  0  0
   -0.6967    3.5385   -0.6347 C   0  0  0  0  0  0  0  0  0  0  0  0
   -1.7061    3.5128   -0.1821 H   0  0  0  0  0  0  0  0  0  0  0  0
    0.3197    4.0729    0.2000 C   0  0  0  0  0  0  0  0  0  0  0  0
    1.2646    4.3561   -0.2966 H   0  0  0  0  0  0  0  0  0  0  0  0
   -0.0413    4.7773    1.4879 C   0  0  0  0  0  0  0  0  0  0  0  0
    0.8279    4.9206    2.1570 H   0  0  0  0  0  0  0  0  0  0  0  0
   -0.4421    5.7837    1.2384 H   0  0  0  0  0  0  0  0  0  0  0  0
   -0.8299    4.2167    2.0279 H   0  0  0  0  0  0  0  0  0  0  0  0
    1.3567    2.3198    1.3123 C   0  0  0  0  0  0  0  0  0  0  0  0
    1.0272    2.4519    2.3656 H   0  0  0  0  0  0  0  0  0  0  0  0
    2.4142    2.5615    1.0678 H   0  0  0  0  0  0  0  0  0  0  0  0
    0.2190    1.6701    0.0332 Ru  0  0  0  0  0  0  0  0  0  0  0  0
   -1.5855    1.5395    1.6357 Cl  0  0  0  0  0  0  0  0  0  0  0  0
    1.9893    1.7074   -1.5982 Cl  0  0  0  0  0  0  0  0  0  0  0  0
    0.1701   -0.3078    0.0491 C   0  0  0  0  0  0  0  0  0  0  0  0
    0.7533   -1.2125    0.8812 N   0  0  0  0  0  0  0  0  0  0  0  0
    0.0092   -2.5225    0.8312 C   0  0  0  0  0  0  0  0  0  0  0  0
   -0.5447   -2.4511   -0.6441 C   0  0  0  0  0  0  0  0  0  0  0  0
   -0.6895   -0.9666   -0.7608 N   0  0  0  0  0  0  0  0  0  0  0  0
    1.8679   -0.9225    1.7130 C   0  0  0  0  0  0  0  0  0  0  0  0
    4.1253   -0.3391    3.2924 C   0  0  0  0  0  0  0  0  0  0  0  0
    1.8613   -1.2130    3.0905 C   0  0  0  0  0  0  0  0  0  0  0  0
    3.0067   -0.3309    1.1290 C   0  0  0  0  0  0  0  0  0  0  0  0
    4.1215   -0.0315    1.9227 C   0  0  0  0  0  0  0  0  0  0  0  0
    2.9926   -0.9321    3.8699 C   0  0  0  0  0  0  0  0  0  0  0  0
    4.9992    0.4402    1.4575 H   0  0  0  0  0  0  0  0  0  0  0  0
    2.9765   -1.1625    4.9450 H   0  0  0  0  0  0  0  0  0  0  0  0
   -1.4366   -0.2859   -1.7735 C   0  0  0  0  0  0  0  0  0  0  0  0
   -2.9495    0.9923   -3.7546 C   0  0  0  0  0  0  0  0  0  0  0  0
   -2.7154    0.2121   -1.4627 C   0  0  0  0  0  0  0  0  0  0  0  0
   -0.8926   -0.1047   -3.0595 C   0  0  0  0  0  0  0  0  0  0  0  0
   -1.6591    0.5237   -4.0510 C   0  0  0  0  0  0  0  0  0  0  0  0
   -3.4685    0.8525   -2.4577 C   0  0  0  0  0  0  0  0  0  0  0  0
   -3.0836    0.1185   -0.4325 H   0  0  0  0  0  0  0  0  0  0  0  0
    0.1384   -0.4232   -3.2577 H   0  0  0  0  0  0  0  0  0  0  0  0
   -1.2355    0.6677   -5.0551 H   0  0  0  0  0  0  0  0  0  0  0  0
   -4.4652    1.2475   -2.2148 H   0  0  0  0  0  0  0  0  0  0  0  0
   -3.5447    1.4898   -4.5340 H   0  0  0  0  0  0  0  0  0  0  0  0
    2.9922   -0.0796    0.0577 H   0  0  0  0  0  0  0  0  0  0  0  0
    0.9634   -1.6312    3.5609 H   0  0  0  0  0  0  0  0  0  0  0  0
    5.0065   -0.1133    3.9098 H   0  0  0  0  0  0  0  0  0  0  0  0
   -1.1316   -2.4786    1.8627 C   0  0  0  0  0  0  0  0  0  0  0  0
   -1.7560   -1.5742    1.7237 H   0  0  0  0  0  0  0  0  0  0  0  0
   -0.7195   -2.4463    2.8880 H   0  0  0  0  0  0  0  0  0  0  0  0
   -1.7649   -3.3840    1.7918 H   0  0  0  0  0  0  0  0  0  0  0  0
    0.9313   -3.7120    1.0826 C   0  0  0  0  0  0  0  0  0  0  0  0
    1.8358   -3.6819    0.4488 H   0  0  0  0  0  0  0  0  0  0  0  0
    0.3857   -4.6555    0.8808 H   0  0  0  0  0  0  0  0  0  0  0  0
    1.2602   -3.7337    2.1385 H   0  0  0  0  0  0  0  0  0  0  0  0
   -1.8854   -3.1494   -0.8578 C   0  0  0  0  0  0  0  0  0  0  0  0
   -1.7914   -4.2328   -0.6439 H   0  0  0  0  0  0  0  0  0  0  0  0
   -2.2006   -3.0411   -1.9141 H   0  0  0  0  0  0  0  0  0  0  0  0
   -2.6839   -2.7284   -0.2214 H   0  0  0  0  0  0  0  0  0  0  0  0
    0.4768   -2.9339   -1.6863 C   0  0  0  0  0  0  0  0  0  0  0  0
    0.6325   -4.0280   -1.6165 H   0  0  0  0  0  0  0  0  0  0  0  0
    1.4507   -2.4229   -1.5582 H   0  0  0  0  0  0  0  0  0  0  0  0
    0.1006   -2.7148   -2.7040 H   0  0  0  0  0  0  0  0  0  0  0  0
  1  2  1  0  0  0  0
  1  5  1  0  0  0  0
  3  1  1  0  0  0  0
  4  1  1  0  0  0  0
  5  6  1  0  0  0  0
  5 16  1  0  0  0  0
  5  7  1  0  0  0  0
  7  9  1  0  0  0  0
  7  8  1  0  0  0  0
  9 10  1  0  0  0  0
 11  9  1  0  0  0  0
 12  9  1  0  0  0  0
 13 14  1  0  0  0  0
 13 15  1  0  0  0  0
 13  7  1  0  0  0  0
 16 13  1  0  0  0  0
 16 17  1  0  0  0  0
 16 18  1  0  0  0  0
 19 20  1  0  0  0  0
 19 23  1  0  0  0  0
 20 21  1  0  0  0  0
 22 23  1  0  0  0  0
 24 27  2  0  0  0  0
 27 28  1  0  0  0  0
 25 28  2  0  0  0  0
 25 29  1  0  0  0  0
 26 29  2  0  0  0  0
 24 26  1  0  0  0  0
 28 30  1  0  0  0  0
 29 31  1  0  0  0  0
 20 24  1  0  0  0  0
 32 35  2  0  0  0  0
 35 36  1  0  0  0  0
 33 36  2  0  0  0  0
 33 37  1  0  0  0  0
 34 37  2  0  0  0  0
 32 34  1  0  0  0  0
 36 40  1  0  0  0  0
 37 41  1  0  0  0  0
 33 42  1  0  0  0  0
 34 38  1  0  0  0  0
 35 39  1  0  0  0  0
 23 32  1  0  0  0  0
 27 43  1  0  0  0  0
 26 44  1  0  0  0  0
 25 45  1  0  0  0  0
 21 22  1  0  0  0  0
 46 47  1  0  0  0  0
 46 48  1  0  0  0  0
 46 49  1  0  0  0  0
 21 46  1  0  0  0  0
 50 51  1  0  0  0  0
 50 52  1  0  0  0  0
 50 53  1  0  0  0  0
 21 50  1  0  0  0  0
 54 55  1  0  0  0  0
 54 56  1  0  0  0  0
 54 57  1  0  0  0  0
 22 54  1  0  0  0  0
 58 59  1  0  0  0  0
 58 60  1  0  0  0  0
 58 61  1  0  0  0  0
 22 58  1  0  0  0  0
 16 19  1  0  0  0  0
M  END
>  <DFT-ENERGY>
-2056.87435815

$$$$
