
  CDK     08012403143D

 55 59  0  0  0  0  0  0  0  0999 V2000
    1.8250   -2.7251    1.4185 H   0  0  0  0  0  0  0  0  0  0  0  0
    3.0402   -2.6458    1.5946 C   0  0  0  0  0  0  0  0  0  0  0  0
    3.0510   -3.7198    1.8832 H   0  0  0  0  0  0  0  0  0  0  0  0
    3.1249   -1.5207    2.5734 C   0  0  0  0  0  0  0  0  0  0  0  0
    4.0464   -0.9160    2.5643 H   0  0  0  0  0  0  0  0  0  0  0  0
    2.6859   -1.6967    3.5700 H   0  0  0  0  0  0  0  0  0  0  0  0
    1.7914   -0.9852    1.0749 Ru  0  0  0  0  0  0  0  0  0  0  0  0
    3.3903   -2.1807    0.2460 C   0  0  0  0  0  0  0  0  0  0  0  0
    4.2715   -1.5402    0.1161 H   0  0  0  0  0  0  0  0  0  0  0  0
    3.1307   -2.8279   -0.6088 H   0  0  0  0  0  0  0  0  0  0  0  0
    3.3589    0.7682    0.3571 Cl  0  0  0  0  0  0  0  0  0  0  0  0
   -0.1030   -1.7675    2.3418 Cl  0  0  0  0  0  0  0  0  0  0  0  0
    0.7831    0.7789    1.1616 C   0  0  0  0  0  0  0  0  0  0  0  0
    0.2472    1.3597    0.0502 N   0  0  0  0  0  0  0  0  0  0  0  0
   -0.8130    2.3497    0.4444 C   0  0  0  0  0  0  0  0  0  0  0  0
   -0.2567    2.7642    1.8545 C   0  0  0  0  0  0  0  0  0  0  0  0
    0.4052    1.4720    2.2514 N   0  0  0  0  0  0  0  0  0  0  0  0
    0.3807    0.7030   -1.1984 C   0  0  0  0  0  0  0  0  0  0  0  0
    0.8928   -0.6835   -3.6021 C   0  0  0  0  0  0  0  0  0  0  0  0
    0.5565   -0.6991   -1.1954 C   0  0  0  0  0  0  0  0  0  0  0  0
    0.4731    1.4072   -2.4130 C   0  0  0  0  0  0  0  0  0  0  0  0
    0.7124    0.7096   -3.6052 C   0  0  0  0  0  0  0  0  0  0  0  0
    0.8198   -1.3837   -2.3909 C   0  0  0  0  0  0  0  0  0  0  0  0
    0.7878    1.2711   -4.5475 H   0  0  0  0  0  0  0  0  0  0  0  0
    0.9515   -2.4749   -2.3659 H   0  0  0  0  0  0  0  0  0  0  0  0
    0.9926    1.2754    3.5426 C   0  0  0  0  0  0  0  0  0  0  0  0
    2.1285    0.9283    6.0779 C   0  0  0  0  0  0  0  0  0  0  0  0
    0.1767    0.9183    4.6275 C   0  0  0  0  0  0  0  0  0  0  0  0
    2.3775    1.4449    3.7125 C   0  0  0  0  0  0  0  0  0  0  0  0
    2.9406    1.2670    4.9836 C   0  0  0  0  0  0  0  0  0  0  0  0
    0.7480    0.7524    5.8972 C   0  0  0  0  0  0  0  0  0  0  0  0
   -0.8928    0.7390    4.4612 H   0  0  0  0  0  0  0  0  0  0  0  0
    2.9967    1.6777    2.8344 H   0  0  0  0  0  0  0  0  0  0  0  0
    4.0248    1.3922    5.1174 H   0  0  0  0  0  0  0  0  0  0  0  0
    0.1113    0.4656    6.7463 H   0  0  0  0  0  0  0  0  0  0  0  0
    2.5745    0.7908    7.0736 H   0  0  0  0  0  0  0  0  0  0  0  0
    0.4121    2.5005   -2.4263 H   0  0  0  0  0  0  0  0  0  0  0  0
    0.3033   -1.2973   -0.2773 H   0  0  0  0  0  0  0  0  0  0  0  0
    1.0931   -1.2179   -4.5413 H   0  0  0  0  0  0  0  0  0  0  0  0
   -2.1365    1.5701    0.5282 C   0  0  0  0  0  0  0  0  0  0  0  0
   -2.0637    0.7377    1.2556 H   0  0  0  0  0  0  0  0  0  0  0  0
   -2.3631    1.1375   -0.4661 H   0  0  0  0  0  0  0  0  0  0  0  0
   -2.9774    2.2317    0.8122 H   0  0  0  0  0  0  0  0  0  0  0  0
   -0.9598    3.5387   -0.5032 C   0  0  0  0  0  0  0  0  0  0  0  0
    0.0095    4.0104   -0.7444 H   0  0  0  0  0  0  0  0  0  0  0  0
   -1.6086    4.3015   -0.0274 H   0  0  0  0  0  0  0  0  0  0  0  0
   -1.4523    3.2316   -1.4443 H   0  0  0  0  0  0  0  0  0  0  0  0
   -1.3390    3.1891    2.8422 C   0  0  0  0  0  0  0  0  0  0  0  0
   -1.8671    4.0841    2.4561 H   0  0  0  0  0  0  0  0  0  0  0  0
   -0.8837    3.4610    3.8134 H   0  0  0  0  0  0  0  0  0  0  0  0
   -2.0826    2.3920    3.0207 H   0  0  0  0  0  0  0  0  0  0  0  0
    0.8439    3.8338    1.7648 C   0  0  0  0  0  0  0  0  0  0  0  0
    0.4261    4.8183    1.4798 H   0  0  0  0  0  0  0  0  0  0  0  0
    1.6237    3.5398    1.0348 H   0  0  0  0  0  0  0  0  0  0  0  0
    1.3261    3.9447    2.7554 H   0  0  0  0  0  0  0  0  0  0  0  0
  1  2  1  0  0  0  0
  1  7  1  0  0  0  0
  2  3  1  0  0  0  0
  2  4  1  0  0  0  0
  4  5  1  0  0  0  0
  4  6  1  0  0  0  0
  7  8  1  0  0  0  0
  4  7  1  0  0  0  0
  2  8  1  0  0  0  0
  8  9  1  0  0  0  0
  8 10  1  0  0  0  0
  7 11  1  0  0  0  0
  7 12  1  0  0  0  0
 13 14  1  0  0  0  0
 13 17  1  0  0  0  0
 14 15  1  0  0  0  0
 16 17  1  0  0  0  0
 18 21  2  0  0  0  0
 21 22  1  0  0  0  0
 19 22  2  0  0  0  0
 19 23  1  0  0  0  0
 20 23  2  0  0  0  0
 18 20  1  0  0  0  0
 22 24  1  0  0  0  0
 23 25  1  0  0  0  0
 14 18  1  0  0  0  0
 26 29  2  0  0  0  0
 29 30  1  0  0  0  0
 27 30  2  0  0  0  0
 27 31  1  0  0  0  0
 28 31  2  0  0  0  0
 26 28  1  0  0  0  0
 30 34  1  0  0  0  0
 31 35  1  0  0  0  0
 27 36  1  0  0  0  0
 28 32  1  0  0  0  0
 29 33  1  0  0  0  0
 17 26  1  0  0  0  0
 21 37  1  0  0  0  0
 20 38  1  0  0  0  0
 19 39  1  0  0  0  0
 15 16  1  0  0  0  0
 40 41  1  0  0  0  0
 40 42  1  0  0  0  0
 40 43  1  0  0  0  0
 15 40  1  0  0  0  0
 44 45  1  0  0  0  0
 44 46  1  0  0  0  0
 44 47  1  0  0  0  0
 15 44  1  0  0  0  0
 48 49  1  0  0  0  0
 48 50  1  0  0  0  0
 48 51  1  0  0  0  0
 16 48  1  0  0  0  0
 52 53  1  0  0  0  0
 52 54  1  0  0  0  0
 52 55  1  0  0  0  0
 16 52  1  0  0  0  0
  7 13  1  0  0  0  0
M  END
>  <DFT-ENERGY>
-1978.33479305

$$$$
