
  CDK     08132417263D

 53 56  0  0  0  0  0  0  0  0999 V2000
    1.3158   -1.0070    0.0792 Ru  0  0  0  0  0  0  0  0  0  0  0  0
    2.7649   -0.8804   -1.2228 C   0  0  0  0  0  0  0  0  0  0  0  0
    2.4917   -1.1842   -2.2500 H   0  0  0  0  0  0  0  0  0  0  0  0
    3.2359   -2.0938   -0.3208 C   0  0  0  0  0  0  0  0  0  0  0  0
    3.2580   -2.9889   -0.9684 H   0  0  0  0  0  0  0  0  0  0  0  0
    2.3399   -2.4487    0.9318 C   0  0  0  0  0  0  0  0  0  0  0  0
    2.8252   -2.1991    1.8925 H   0  0  0  0  0  0  0  0  0  0  0  0
    1.8832   -3.4528    0.8611 H   0  0  0  0  0  0  0  0  0  0  0  0
    4.2184   -1.7963    0.0890 H   0  0  0  0  0  0  0  0  0  0  0  0
    3.4193    0.0058   -1.1356 H   0  0  0  0  0  0  0  0  0  0  0  0
    0.1790   -2.6306   -1.2308 Cl  0  0  0  0  0  0  0  0  0  0  0  0
    2.4892    0.5211    1.5203 Cl  0  0  0  0  0  0  0  0  0  0  0  0
   -0.3510    0.0474    0.4283 C   0  0  0  0  0  0  0  0  0  0  0  0
   -0.9282    0.9587   -0.4104 N   0  0  0  0  0  0  0  0  0  0  0  0
   -2.0340    1.5484    0.2062 C   0  0  0  0  0  0  0  0  0  0  0  0
   -2.1447    0.9793    1.4469 C   0  0  0  0  0  0  0  0  0  0  0  0
   -1.1012    0.0600    1.5636 N   0  0  0  0  0  0  0  0  0  0  0  0
   -0.4177    1.2465   -1.7285 C   0  0  0  0  0  0  0  0  0  0  0  0
    0.6492    1.7185   -4.2711 C   0  0  0  0  0  0  0  0  0  0  0  0
    0.6194    2.1951   -1.8581 C   0  0  0  0  0  0  0  0  0  0  0  0
   -0.9771    0.5659   -2.8323 C   0  0  0  0  0  0  0  0  0  0  0  0
   -0.4193    0.8196   -4.0956 C   0  0  0  0  0  0  0  0  0  0  0  0
    1.1414    2.4044   -3.1479 C   0  0  0  0  0  0  0  0  0  0  0  0
   -0.8344    0.2930   -4.9688 H   0  0  0  0  0  0  0  0  0  0  0  0
    1.9540    3.1366   -3.2736 H   0  0  0  0  0  0  0  0  0  0  0  0
   -2.1097   -0.4072   -2.6571 C   0  0  0  0  0  0  0  0  0  0  0  0
   -2.9413    0.0275   -2.0664 H   0  0  0  0  0  0  0  0  0  0  0  0
   -1.7487   -1.3086   -2.1161 H   0  0  0  0  0  0  0  0  0  0  0  0
   -2.5084   -0.7255   -3.6381 H   0  0  0  0  0  0  0  0  0  0  0  0
    1.1373    2.9631   -0.6733 C   0  0  0  0  0  0  0  0  0  0  0  0
    1.8194    3.7700   -1.0001 H   0  0  0  0  0  0  0  0  0  0  0  0
    1.6875    2.3035    0.0338 H   0  0  0  0  0  0  0  0  0  0  0  0
    0.3093    3.4225   -0.0954 H   0  0  0  0  0  0  0  0  0  0  0  0
    1.2507    1.9330   -5.6372 C   0  0  0  0  0  0  0  0  0  0  0  0
    1.8774    2.8448   -5.6698 H   0  0  0  0  0  0  0  0  0  0  0  0
    0.4675    2.0216   -6.4166 H   0  0  0  0  0  0  0  0  0  0  0  0
    1.8946    1.0744   -5.9235 H   0  0  0  0  0  0  0  0  0  0  0  0
   -2.8683    1.1472    2.2465 H   0  0  0  0  0  0  0  0  0  0  0  0
   -2.6299    2.3111   -0.2988 H   0  0  0  0  0  0  0  0  0  0  0  0
   -0.7639   -0.7403    2.7423 C   0  0  0  0  0  0  0  0  0  0  0  0
   -0.3390    0.0870    3.9645 C   0  0  0  0  0  0  0  0  0  0  0  0
   -0.4332   -0.9514    5.0874 C   0  0  0  0  0  0  0  0  0  0  0  0
   -1.7505   -1.7017    4.7847 C   0  0  0  0  0  0  0  0  0  0  0  0
   -1.9029   -1.6666    3.2388 C   0  0  0  0  0  0  0  0  0  0  0  0
    0.1065   -1.3504    2.4209 H   0  0  0  0  0  0  0  0  0  0  0  0
   -1.0699    0.9083    4.1342 H   0  0  0  0  0  0  0  0  0  0  0  0
    0.6626    0.5343    3.8189 H   0  0  0  0  0  0  0  0  0  0  0  0
    0.4303   -1.6472    5.0159 H   0  0  0  0  0  0  0  0  0  0  0  0
   -0.4100   -0.5054    6.1004 H   0  0  0  0  0  0  0  0  0  0  0  0
   -2.6006   -1.1714    5.2615 H   0  0  0  0  0  0  0  0  0  0  0  0
   -1.7522   -2.7325    5.1883 H   0  0  0  0  0  0  0  0  0  0  0  0
   -2.8882   -1.2576    2.9378 H   0  0  0  0  0  0  0  0  0  0  0  0
   -1.8231   -2.6667    2.7712 H   0  0  0  0  0  0  0  0  0  0  0  0
  2  4  1  0  0  0  0
  2  1  1  0  0  0  0
  2  3  1  0  0  0  0
  4  6  1  0  0  0  0
  4  5  1  0  0  0  0
  6  1  1  0  0  0  0
  6  8  1  0  0  0  0
  7  6  1  0  0  0  0
  9  4  1  0  0  0  0
 10  2  1  0  0  0  0
  1 11  1  0  0  0  0
  1 12  1  0  0  0  0
 13 14  1  0  0  0  0
 13 17  1  0  0  0  0
 14 15  1  0  0  0  0
 14 18  1  0  0  0  0
 15 16  2  0  0  0  0
 15 39  1  0  0  0  0
 16 17  1  0  0  0  0
 16 38  1  0  0  0  0
 17 40  1  0  0  0  0
 18 21  2  0  0  0  0
 18 20  1  0  0  0  0
 19 22  2  0  0  0  0
 19 23  1  0  0  0  0
 19 34  1  0  0  0  0
 20 23  2  0  0  0  0
 20 30  1  0  0  0  0
 21 22  1  0  0  0  0
 21 26  1  0  0  0  0
 22 24  1  0  0  0  0
 23 25  1  0  0  0  0
 26 27  1  0  0  0  0
 26 28  1  0  0  0  0
 26 29  1  0  0  0  0
 30 31  1  0  0  0  0
 30 32  1  0  0  0  0
 30 33  1  0  0  0  0
 34 35  1  0  0  0  0
 34 36  1  0  0  0  0
 34 37  1  0  0  0  0
 40 45  1  0  0  0  0
 40 41  1  0  0  0  0
 40 44  1  0  0  0  0
 41 46  1  0  0  0  0
 41 47  1  0  0  0  0
 41 42  1  0  0  0  0
 42 48  1  0  0  0  0
 42 49  1  0  0  0  0
 42 43  1  0  0  0  0
 43 50  1  0  0  0  0
 43 51  1  0  0  0  0
 43 44  1  0  0  0  0
 44 52  1  0  0  0  0
 44 53  1  0  0  0  0
  1 13  1  0  0  0  0
M  END
>  <DFT-ENERGY>
-1902.235734

$$$$
