
  CDK     08192411003D

 61 64  0  0  0  0  0  0  0  0999 V2000
    0.7860   -1.2540   -0.1563 Ru  0  0  0  0  0  0  0  0  0  0  0  0
    0.5825   -2.9446   -1.1471 C   0  0  0  0  0  0  0  0  0  0  0  0
    0.6970   -2.8813   -2.2437 H   0  0  0  0  0  0  0  0  0  0  0  0
    1.9504   -3.1681   -0.3883 C   0  0  0  0  0  0  0  0  0  0  0  0
    2.7172   -3.3045   -1.1746 H   0  0  0  0  0  0  0  0  0  0  0  0
    2.4734   -1.9993    0.5374 C   0  0  0  0  0  0  0  0  0  0  0  0
    2.4832   -2.2635    1.6095 H   0  0  0  0  0  0  0  0  0  0  0  0
    3.3979   -1.5299    0.1553 H   0  0  0  0  0  0  0  0  0  0  0  0
    1.7954   -4.0390    0.2768 H   0  0  0  0  0  0  0  0  0  0  0  0
   -0.2206   -3.6150   -0.7912 H   0  0  0  0  0  0  0  0  0  0  0  0
    2.1365   -0.2798   -2.2808 I   0  0  0  0  0  0  0  0  0  0  0  0
   -0.4637   -2.3802    1.9552 I   0  0  0  0  0  0  0  0  0  0  0  0
   -0.0882    1.3621    1.0358 N   0  0  0  0  0  0  0  0  0  0  0  0
   -1.2232    0.8851   -0.7952 N   0  0  0  0  0  0  0  0  0  0  0  0
   -0.2495    0.4512    0.0439 C   0  0  0  0  0  0  0  0  0  0  0  0
   -0.9042    2.5723    0.8058 C   0  0  0  0  0  0  0  0  0  0  0  0
   -0.2511    3.4079    0.4721 H   0  0  0  0  0  0  0  0  0  0  0  0
   -1.4138    2.8780    1.7381 H   0  0  0  0  0  0  0  0  0  0  0  0
   -1.8778    2.1088   -0.2882 C   0  0  0  0  0  0  0  0  0  0  0  0
   -2.8846    1.8585    0.1116 H   0  0  0  0  0  0  0  0  0  0  0  0
   -1.9987    2.8481   -1.1014 H   0  0  0  0  0  0  0  0  0  0  0  0
    0.7979    1.2218    2.1552 C   0  0  0  0  0  0  0  0  0  0  0  0
    2.1825    1.4478    1.9904 C   0  0  0  0  0  0  0  0  0  0  0  0
    3.0187    1.2377    3.1039 C   0  0  0  0  0  0  0  0  0  0  0  0
    4.1016    1.4004    2.9864 H   0  0  0  0  0  0  0  0  0  0  0  0
    2.5132    0.8477    4.3532 C   0  0  0  0  0  0  0  0  0  0  0  0
    1.1202    0.7022    4.4928 C   0  0  0  0  0  0  0  0  0  0  0  0
    0.7011    0.4202    5.4711 H   0  0  0  0  0  0  0  0  0  0  0  0
    0.2429    0.8915    3.4161 C   0  0  0  0  0  0  0  0  0  0  0  0
    2.7693    1.9255    0.6901 C   0  0  0  0  0  0  0  0  0  0  0  0
    2.0529    2.5363    0.1083 H   0  0  0  0  0  0  0  0  0  0  0  0
    3.0496    1.0843    0.0218 H   0  0  0  0  0  0  0  0  0  0  0  0
    3.6777    2.5304    0.8742 H   0  0  0  0  0  0  0  0  0  0  0  0
    3.4307    0.5881    5.5210 C   0  0  0  0  0  0  0  0  0  0  0  0
    3.0545    1.0659    6.4480 H   0  0  0  0  0  0  0  0  0  0  0  0
    4.4540    0.9636    5.3287 H   0  0  0  0  0  0  0  0  0  0  0  0
    3.5062   -0.5006    5.7274 H   0  0  0  0  0  0  0  0  0  0  0  0
   -1.2454    0.7711    3.6139 C   0  0  0  0  0  0  0  0  0  0  0  0
   -1.7347    0.3063    2.7375 H   0  0  0  0  0  0  0  0  0  0  0  0
   -1.7064    1.7685    3.7891 H   0  0  0  0  0  0  0  0  0  0  0  0
   -1.4740    0.1427    4.4946 H   0  0  0  0  0  0  0  0  0  0  0  0
   -1.6363    0.2212   -1.9979 C   0  0  0  0  0  0  0  0  0  0  0  0
   -2.4615   -0.9231   -1.9216 C   0  0  0  0  0  0  0  0  0  0  0  0
   -2.7852   -1.5804   -3.1242 C   0  0  0  0  0  0  0  0  0  0  0  0
   -3.4189   -2.4800   -3.0777 H   0  0  0  0  0  0  0  0  0  0  0  0
   -2.3413   -1.1151   -4.3712 C   0  0  0  0  0  0  0  0  0  0  0  0
   -1.5832    0.0702   -4.4088 C   0  0  0  0  0  0  0  0  0  0  0  0
   -1.2473    0.4669   -5.3794 H   0  0  0  0  0  0  0  0  0  0  0  0
   -1.2268    0.7607   -3.2421 C   0  0  0  0  0  0  0  0  0  0  0  0
   -3.0158   -1.4288   -0.6177 C   0  0  0  0  0  0  0  0  0  0  0  0
   -3.1440   -0.6178    0.1243 H   0  0  0  0  0  0  0  0  0  0  0  0
   -2.3424   -2.1672   -0.1339 H   0  0  0  0  0  0  0  0  0  0  0  0
   -3.9964   -1.9167   -0.7774 H   0  0  0  0  0  0  0  0  0  0  0  0
   -2.6620   -1.8602   -5.6420 C   0  0  0  0  0  0  0  0  0  0  0  0
   -2.9832   -1.1706   -6.4484 H   0  0  0  0  0  0  0  0  0  0  0  0
   -3.4625   -2.6086   -5.4865 H   0  0  0  0  0  0  0  0  0  0  0  0
   -1.7670   -2.4004   -6.0173 H   0  0  0  0  0  0  0  0  0  0  0  0
   -0.4572    2.0528   -3.3262 C   0  0  0  0  0  0  0  0  0  0  0  0
    0.2666    2.1499   -2.4957 H   0  0  0  0  0  0  0  0  0  0  0  0
   -1.1448    2.9273   -3.3010 H   0  0  0  0  0  0  0  0  0  0  0  0
    0.1126    2.1087   -4.2723 H   0  0  0  0  0  0  0  0  0  0  0  0
  2  4  1  0  0  0  0
  2  1  1  0  0  0  0
  2  3  1  0  0  0  0
  4  6  1  0  0  0  0
  4  5  1  0  0  0  0
  6  1  1  0  0  0  0
  6  8  1  0  0  0  0
  7  6  1  0  0  0  0
  9  4  1  0  0  0  0
 10  2  1  0  0  0  0
  1 11  1  0  0  0  0
  1 12  1  0  0  0  0
 13 15  1  0  0  0  0
 14 15  1  0  0  0  0
 13 16  1  0  0  0  0
 16 19  1  0  0  0  0
 16 17  1  0  0  0  0
 16 18  1  0  0  0  0
 14 19  1  0  0  0  0
 19 20  1  0  0  0  0
 19 21  1  0  0  0  0
 22 23  2  0  0  0  0
 23 24  1  0  0  0  0
 24 25  1  0  0  0  0
 24 26  2  0  0  0  0
 26 27  1  0  0  0  0
 27 29  2  0  0  0  0
 27 28  1  0  0  0  0
 22 29  1  0  0  0  0
 13 22  1  0  0  0  0
 30 31  1  0  0  0  0
 30 32  1  0  0  0  0
 30 33  1  0  0  0  0
 23 30  1  0  0  0  0
 34 35  1  0  0  0  0
 34 36  1  0  0  0  0
 34 37  1  0  0  0  0
 26 34  1  0  0  0  0
 38 39  1  0  0  0  0
 38 40  1  0  0  0  0
 38 41  1  0  0  0  0
 29 38  1  0  0  0  0
 42 43  2  0  0  0  0
 43 44  1  0  0  0  0
 44 45  1  0  0  0  0
 44 46  2  0  0  0  0
 46 47  1  0  0  0  0
 47 49  2  0  0  0  0
 47 48  1  0  0  0  0
 42 49  1  0  0  0  0
 14 42  1  0  0  0  0
 50 51  1  0  0  0  0
 50 52  1  0  0  0  0
 50 53  1  0  0  0  0
 43 50  1  0  0  0  0
 54 55  1  0  0  0  0
 54 56  1  0  0  0  0
 54 57  1  0  0  0  0
 46 54  1  0  0  0  0
 58 59  1  0  0  0  0
 58 60  1  0  0  0  0
 58 61  1  0  0  0  0
 49 58  1  0  0  0  0
  1 15  1  0  0  0  0
M  END
>  <DFT-ENERGY>
-1728.27309815

$$$$
