SIMesI-1_A2
  CDK     08162410543D

 75 79  0  0  0  0  0  0  0  0999 V2000
    0.7352   -0.6695   -0.4781 Ru  0  0  0  0  0  0  0  0  0  0  0  0
    2.5130   -0.6695   -1.8673 O   0  0  0  0  0  0  0  0  0  0  0  0
    1.9454    0.2638    0.5260 C   0  0  0  0  0  0  0  0  0  0  0  0
    1.7126    0.5567    1.5487 H   0  0  0  0  0  0  0  0  0  0  0  0
    2.7485   -1.4447   -3.0931 C   0  0  0  0  0  0  0  0  0  0  0  0
    3.1198   -0.7298   -3.8588 H   0  0  0  0  0  0  0  0  0  0  0  0
    1.3383   -1.9326   -3.3884 C   0  0  0  0  0  0  0  0  0  0  0  0
    1.2766   -2.4444   -4.3528 H   0  0  0  0  0  0  0  0  0  0  0  0
    0.9770   -2.6312   -2.6090 H   0  0  0  0  0  0  0  0  0  0  0  0
    0.6217   -1.0827   -3.4046 H   0  0  0  0  0  0  0  0  0  0  0  0
    3.7313   -2.5584   -2.7836 C   0  0  0  0  0  0  0  0  0  0  0  0
    4.7603   -2.2028   -2.6696 H   0  0  0  0  0  0  0  0  0  0  0  0
    3.4603   -3.0541   -1.8288 H   0  0  0  0  0  0  0  0  0  0  0  0
    3.7247   -3.3314   -3.5595 H   0  0  0  0  0  0  0  0  0  0  0  0
    3.5052    0.1289   -1.3623 C   0  0  0  0  0  0  0  0  0  0  0  0
    4.6743    0.4776   -2.0153 C   0  0  0  0  0  0  0  0  0  0  0  0
    4.8924    0.1293   -3.0231 H   0  0  0  0  0  0  0  0  0  0  0  0
    5.5755    1.3087   -1.3578 C   0  0  0  0  0  0  0  0  0  0  0  0
    6.4993    1.5969   -1.8673 H   0  0  0  0  0  0  0  0  0  0  0  0
    5.3255    1.7803   -0.0725 C   0  0  0  0  0  0  0  0  0  0  0  0
    6.0507    2.4254    0.4223 H   0  0  0  0  0  0  0  0  0  0  0  0
    4.1558    1.4200    0.5691 C   0  0  0  0  0  0  0  0  0  0  0  0
    3.9635    1.7731    1.5811 H   0  0  0  0  0  0  0  0  0  0  0  0
    3.2203    0.6046   -0.0703 C   0  0  0  0  0  0  0  0  0  0  0  0
    1.7718   -2.8647    0.6508 I   0  0  0  0  0  0  0  0  0  0  0  0
   -0.0908    1.4154   -1.8721 I   0  0  0  0  0  0  0  0  0  0  0  0
   -1.1663   -0.2717    1.9399 N   0  0  0  0  0  0  0  0  0  0  0  0
   -2.1245   -1.2509    0.1856 N   0  0  0  0  0  0  0  0  0  0  0  0
   -0.9316   -0.6987    0.6425 C   0  0  0  0  0  0  0  0  0  0  0  0
   -2.5498   -0.6050    2.4415 C   0  0  0  0  0  0  0  0  0  0  0  0
   -3.0786    0.3213    2.7423 H   0  0  0  0  0  0  0  0  0  0  0  0
   -2.4811   -1.2618    3.3329 H   0  0  0  0  0  0  0  0  0  0  0  0
   -3.2024   -1.3031    1.2376 C   0  0  0  0  0  0  0  0  0  0  0  0
   -3.4766   -2.3565    1.4465 H   0  0  0  0  0  0  0  0  0  0  0  0
   -4.1129   -0.7798    0.8785 H   0  0  0  0  0  0  0  0  0  0  0  0
   -0.3165    0.4390    2.8617 C   0  0  0  0  0  0  0  0  0  0  0  0
   -0.2392    1.8534    2.7807 C   0  0  0  0  0  0  0  0  0  0  0  0
    0.5151    2.5465    3.7334 C   0  0  0  0  0  0  0  0  0  0  0  0
    0.5811    3.6313    3.6788 H   0  0  0  0  0  0  0  0  0  0  0  0
    1.1809    1.8617    4.7615 C   0  0  0  0  0  0  0  0  0  0  0  0
    1.1014    0.4657    4.8306 C   0  0  0  0  0  0  0  0  0  0  0  0
    1.6232   -0.0672    5.6232 H   0  0  0  0  0  0  0  0  0  0  0  0
    0.3563   -0.2615    3.8915 C   0  0  0  0  0  0  0  0  0  0  0  0
   -0.9284    2.5942    1.6889 C   0  0  0  0  0  0  0  0  0  0  0  0
   -2.0155    2.4431    1.7097 H   0  0  0  0  0  0  0  0  0  0  0  0
   -0.5848    2.2421    0.6858 H   0  0  0  0  0  0  0  0  0  0  0  0
   -0.7466    3.6753    1.7162 H   0  0  0  0  0  0  0  0  0  0  0  0
    1.9655    2.6305    5.7738 C   0  0  0  0  0  0  0  0  0  0  0  0
    2.5034    1.9835    6.4792 H   0  0  0  0  0  0  0  0  0  0  0  0
    1.3093    3.2819    6.3702 H   0  0  0  0  0  0  0  0  0  0  0  0
    2.7142    3.2785    5.2958 H   0  0  0  0  0  0  0  0  0  0  0  0
    0.2952   -1.7459    3.9805 C   0  0  0  0  0  0  0  0  0  0  0  0
    0.6988   -2.2088    3.0469 H   0  0  0  0  0  0  0  0  0  0  0  0
   -0.7317   -2.1153    4.0928 H   0  0  0  0  0  0  0  0  0  0  0  0
    0.8858   -2.1545    4.8091 H   0  0  0  0  0  0  0  0  0  0  0  0
   -2.4784   -1.7480   -1.1228 C   0  0  0  0  0  0  0  0  0  0  0  0
   -2.1982   -3.0888   -1.4776 C   0  0  0  0  0  0  0  0  0  0  0  0
   -2.5925   -3.5589   -2.7386 C   0  0  0  0  0  0  0  0  0  0  0  0
   -2.3617   -4.5839   -3.0200 H   0  0  0  0  0  0  0  0  0  0  0  0
   -3.2840   -2.7306   -3.6303 C   0  0  0  0  0  0  0  0  0  0  0  0
   -3.6029   -1.4184   -3.2520 C   0  0  0  0  0  0  0  0  0  0  0  0
   -4.1519   -0.7791   -3.9403 H   0  0  0  0  0  0  0  0  0  0  0  0
   -3.2209   -0.9167   -2.0026 C   0  0  0  0  0  0  0  0  0  0  0  0
   -1.5072   -4.0071   -0.5341 C   0  0  0  0  0  0  0  0  0  0  0  0
   -2.0353   -4.0920    0.4237 H   0  0  0  0  0  0  0  0  0  0  0  0
   -0.4815   -3.6299   -0.2899 H   0  0  0  0  0  0  0  0  0  0  0  0
   -1.3780   -5.0214   -0.9289 H   0  0  0  0  0  0  0  0  0  0  0  0
   -3.6957   -3.2341   -4.9753 C   0  0  0  0  0  0  0  0  0  0  0  0
   -4.7799   -3.1325   -5.1271 H   0  0  0  0  0  0  0  0  0  0  0  0
   -3.4456   -4.2915   -5.1309 H   0  0  0  0  0  0  0  0  0  0  0  0
   -3.2024   -2.6638   -5.7767 H   0  0  0  0  0  0  0  0  0  0  0  0
   -3.6161    0.4673   -1.6161 C   0  0  0  0  0  0  0  0  0  0  0  0
   -2.7060    1.1001   -1.4904 H   0  0  0  0  0  0  0  0  0  0  0  0
   -4.1624    0.4950   -0.6659 H   0  0  0  0  0  0  0  0  0  0  0  0
   -4.2368    0.9633   -2.3717 H   0  0  0  0  0  0  0  0  0  0  0  0
  1  2  1  0  0  0  0
  1  3  2  0  0  0  0
  3  4  1  0  0  0  0
  2  5  1  0  0  0  0
  5  6  1  0  0  0  0
  5  7  1  0  0  0  0
  7  8  1  0  0  0  0
  7  9  1  0  0  0  0
  7 10  1  0  0  0  0
  5 11  1  0  0  0  0
 11 12  1  0  0  0  0
 11 13  1  0  0  0  0
 11 14  1  0  0  0  0
  2 15  1  0  0  0  0
 15 24  1  0  0  0  0
 15 16  2  0  0  0  0
 16 17  1  0  0  0  0
 16 18  1  0  0  0  0
 18 19  1  0  0  0  0
 18 20  2  0  0  0  0
 20 21  1  0  0  0  0
 20 22  1  0  0  0  0
 22 24  2  0  0  0  0
 22 23  1  0  0  0  0
  3 24  1  0  0  0  0
  1 25  1  0  0  0  0
  1 26  1  0  0  0  0
 27 29  1  0  0  0  0
 28 29  1  0  0  0  0
 27 30  1  0  0  0  0
 30 33  1  0  0  0  0
 30 31  1  0  0  0  0
 30 32  1  0  0  0  0
 28 33  1  0  0  0  0
 33 34  1  0  0  0  0
 33 35  1  0  0  0  0
  1 29  1  0  0  0  0
 36 37  2  0  0  0  0
 37 38  1  0  0  0  0
 38 39  1  0  0  0  0
 38 40  2  0  0  0  0
 40 41  1  0  0  0  0
 41 43  2  0  0  0  0
 41 42  1  0  0  0  0
 36 43  1  0  0  0  0
 27 36  1  0  0  0  0
 44 45  1  0  0  0  0
 44 46  1  0  0  0  0
 44 47  1  0  0  0  0
 37 44  1  0  0  0  0
 48 49  1  0  0  0  0
 48 50  1  0  0  0  0
 48 51  1  0  0  0  0
 40 48  1  0  0  0  0
 52 53  1  0  0  0  0
 52 54  1  0  0  0  0
 52 55  1  0  0  0  0
 43 52  1  0  0  0  0
 56 57  2  0  0  0  0
 57 58  1  0  0  0  0
 58 59  1  0  0  0  0
 58 60  2  0  0  0  0
 60 61  1  0  0  0  0
 61 63  2  0  0  0  0
 61 62  1  0  0  0  0
 56 63  1  0  0  0  0
 28 56  1  0  0  0  0
 64 65  1  0  0  0  0
 64 66  1  0  0  0  0
 64 67  1  0  0  0  0
 57 64  1  0  0  0  0
 68 69  1  0  0  0  0
 68 70  1  0  0  0  0
 68 71  1  0  0  0  0
 60 68  1  0  0  0  0
 72 73  1  0  0  0  0
 72 74  1  0  0  0  0
 72 75  1  0  0  0  0
 63 72  1  0  0  0  0
M  END
> <FrozenCore-PM6_ENERGY>
199.935

> <RMSD_CONF_CG-CS>
1.308282

> <RMSD_CONF_GO-CS>
0.000000

> <UID>


> <DESCRIPTOR_DEFINITION_1>
desc1=( echo "1 * ( e( $hartree_to_kcalmol * ( ( $freeEnergyZ - $freeEnergyD ) - ( $freeEnergyX + 2*$G_Ethene - $freeEnergyD - 2*$G_Propene ) - $DDG_reference_HGII ) / $kT ) ) " | bc -l )

> <DESCRIPTOR_DEFINITION_2>
desc1=( echo "1 * ( e( $hartree_to_kcalmol * ( ( $freeEnergyZ - $freeEnergyD ) - ( $freeEnergyX + 2*$G_Ethene - $freeEnergyD - 2*$G_Propene ) - $DDG_reference_HGII ) / $kT ) ) " | bc -l )

> <DESCRIPTOR_DEFINITION_3>
desc1=( echo "1 * ( e( $hartree_to_kcalmol * ( ( $freeEnergyZ - $freeEnergyD ) - ( $freeEnergyX + 2*$G_Ethene - $freeEnergyD - 2*$G_Propene ) - $DDG_reference_HGII ) / $kT ) ) " | bc -l )

> <WEIGHT_DEFINITION_1>
w1=$( echo "1 / ( 1 + e( $hartree_to_kcalmol * ( ( ( $freeEnergyX + 2*$G_Ethene - $freeEnergyD - 2*$G_Propene ) ) - ( $DG_referenceProductionBarrier + $magnitude4 ) ) / $kT ) )" | bc -l )

> <WEIGHT_DEFINITION_2>
w1=$( echo "1 / ( 1 + e( $hartree_to_kcalmol * ( ( ( $freeEnergyX + 2*$G_Ethene - $freeEnergyD - 2*$G_Propene ) ) - ( $DG_referenceProductionBarrier + $magnitude4 ) ) / $kT ) )" | bc -l )

> <WEIGHT_DEFINITION_3>
w1=$( echo "1 / ( 1 + e( $hartree_to_kcalmol * ( ( ( $freeEnergyX + 2*$G_Ethene - $freeEnergyD - 2*$G_Propene ) ) - ( $DG_referenceProductionBarrier + $magnitude4 ) ) / $kT ) )" | bc -l )

> <WEIGHT_DEFINITION_4>
w1=$( echo "1 / ( 1 + e( $hartree_to_kcalmol * ( ( ( $freeEnergyX + 2*$G_Ethene - $freeEnergyD - 2*$G_Propene ) ) - ( $DG_referenceProductionBarrier + $magnitude4 ) ) / $kT ) )" | bc -l )

> <CALCULATION_OF_OVERALL_FITNESS>
fitness=$( echo "( $desc1 + $desc2 + $desc3 ) * ( $w1 * $w2 * $w3 * $w4 )" | bc -l )

> <freeEnergyA>
-2073.50732096

> <freeEnergyF>
-2073.49601014

> <freeEnergyE>
-2402.13789226

> <freeEnergyC>
-1728.2504295

> <freeEnergyL>
-924.272554735

> <freeEnergyX>
-1806.77989828

> <freeEnergyZ>
-1728.2326575

> <freeEnergyD>
-1728.27309808

> <G_Propene>
-117.738020895

> <G_Ethene>
-78.4716324751

> <G_HoveydaProd>
-502.204109499

> <G_SIMes>
-924.27249048

> <G_HG_RuCl2_SIMes>
-2402.13728523

> <DG_referenceProductionBarrier>
0.01468968

> <DG_referencePrecursorStabilityHII>
-0.0052201621

> <DG_referencePrecursorStabilityHI>
0.0117775312

> <DDG_referencePrecursorStability>
.0169976933

> <DG_referenceSynt>
0.0226072217

> <hartree_to_kcalmol>
627.49467516

> <boltzmann_constant>
0.0000000000000000000000138066

> <avogadro_number>
602214000000000000000000

> <jmol_to_kcalmol>
0.00023901

> <temp>
313.15

> <kT>
.6223089948281258706000000000

> <magnitude1>
1.43290809

> <magnitude2>
2.86581618

> <magnitude3>
4.29872427

> <magnitude4>
5.73163236

> <DFT_IDENTIFIER>
1724061693957

> <DFT_MACHINE>
158.39.114.73

> <XTB_IDENTIFIER>
NREC

> <XTB_MACHINE>
NREC

> <DESCRIPTOR_1>
.00039680043429122384

> <DESCRIPTOR_2>
9.076045457332665432

> <DESCRIPTOR_3>
0.0000000001

> <WEIGHT_1>
.99582383557284200520

> <WEIGHT_2>
.99999998707716125612

> <WEIGHT_3>
.99999999999271694021

> <WEIGHT_4>
.99888739606463961721

> <FITNESS>
9.02848111340535499551

$$$$
