
  CDK     08162423543D

 67 70  0  0  0  0  0  0  0  0999 V2000
   -1.4700    3.0576   -0.5942 C   0  0  0  0  0  0  0  0  0  0  0  0
   -2.0524    3.1109    0.3426 H   0  0  0  0  0  0  0  0  0  0  0  0
   -1.7222    3.9295   -1.2391 H   0  0  0  0  0  0  0  0  0  0  0  0
   -1.7939    2.1521   -1.1480 H   0  0  0  0  0  0  0  0  0  0  0  0
    0.0214    3.0646   -0.3489 C   0  0  0  0  0  0  0  0  0  0  0  0
    0.6401    3.1747   -1.2587 H   0  0  0  0  0  0  0  0  0  0  0  0
    0.6375    3.5179    0.8486 C   0  0  0  0  0  0  0  0  0  0  0  0
   -0.0229    3.6794    1.7190 H   0  0  0  0  0  0  0  0  0  0  0  0
    1.9170    4.3223    0.7871 C   0  0  0  0  0  0  0  0  0  0  0  0
    2.4329    4.3829    1.7640 H   0  0  0  0  0  0  0  0  0  0  0  0
    1.6593    5.3593    0.4810 H   0  0  0  0  0  0  0  0  0  0  0  0
    2.6120    3.9057    0.0309 H   0  0  0  0  0  0  0  0  0  0  0  0
    1.7310    1.7221    1.8310 C   0  0  0  0  0  0  0  0  0  0  0  0
    2.8061    1.8981    1.6137 H   0  0  0  0  0  0  0  0  0  0  0  0
    1.4020    1.8926    2.8801 H   0  0  0  0  0  0  0  0  0  0  0  0
    0.5600    1.1355    0.5407 Ru  0  0  0  0  0  0  0  0  0  0  0  0
    2.5890    1.1491   -1.2660 I   0  0  0  0  0  0  0  0  0  0  0  0
   -1.4554    1.1687    2.3772 I   0  0  0  0  0  0  0  0  0  0  0  0
    1.3755   -1.7662    1.0206 N   0  0  0  0  0  0  0  0  0  0  0  0
   -0.4329   -1.5920   -0.2219 N   0  0  0  0  0  0  0  0  0  0  0  0
    0.5102   -0.8818    0.4550 C   0  0  0  0  0  0  0  0  0  0  0  0
    0.9524   -3.1680    0.8225 C   0  0  0  0  0  0  0  0  0  0  0  0
    0.5803   -3.5894    1.7812 H   0  0  0  0  0  0  0  0  0  0  0  0
    1.8055   -3.7838    0.4804 H   0  0  0  0  0  0  0  0  0  0  0  0
   -0.1555   -3.0399   -0.2350 C   0  0  0  0  0  0  0  0  0  0  0  0
    0.1787   -3.3521   -1.2484 H   0  0  0  0  0  0  0  0  0  0  0  0
   -1.0662   -3.6134    0.0225 H   0  0  0  0  0  0  0  0  0  0  0  0
    2.5628   -1.4373    1.7536 C   0  0  0  0  0  0  0  0  0  0  0  0
    2.4630   -1.0979    3.1241 C   0  0  0  0  0  0  0  0  0  0  0  0
    3.6374   -0.7171    3.7958 C   0  0  0  0  0  0  0  0  0  0  0  0
    3.5689   -0.4392    4.8593 H   0  0  0  0  0  0  0  0  0  0  0  0
    4.8895   -0.6983    3.1550 C   0  0  0  0  0  0  0  0  0  0  0  0
    4.9579   -1.1244    1.8184 C   0  0  0  0  0  0  0  0  0  0  0  0
    5.9341   -1.1555    1.3100 H   0  0  0  0  0  0  0  0  0  0  0  0
    3.8131   -1.5118    1.0997 C   0  0  0  0  0  0  0  0  0  0  0  0
    1.1518   -1.1827    3.8551 C   0  0  0  0  0  0  0  0  0  0  0  0
    0.7154   -2.2008    3.7790 H   0  0  0  0  0  0  0  0  0  0  0  0
    0.3916   -0.4831    3.4468 H   0  0  0  0  0  0  0  0  0  0  0  0
    1.2852   -0.9546    4.9293 H   0  0  0  0  0  0  0  0  0  0  0  0
    6.1238   -0.2301    3.8838 C   0  0  0  0  0  0  0  0  0  0  0  0
    7.0399   -0.7080    3.4853 H   0  0  0  0  0  0  0  0  0  0  0  0
    6.0631   -0.4440    4.9690 H   0  0  0  0  0  0  0  0  0  0  0  0
    6.2535    0.8681    3.7739 H   0  0  0  0  0  0  0  0  0  0  0  0
    3.9471   -2.0513   -0.3002 C   0  0  0  0  0  0  0  0  0  0  0  0
    3.0532   -1.8341   -0.9120 H   0  0  0  0  0  0  0  0  0  0  0  0
    4.1069   -3.1524   -0.2773 H   0  0  0  0  0  0  0  0  0  0  0  0
    4.8155   -1.6004   -0.8155 H   0  0  0  0  0  0  0  0  0  0  0  0
   -1.5443   -1.0059   -0.9123 C   0  0  0  0  0  0  0  0  0  0  0  0
   -1.3737   -0.4769   -2.2123 C   0  0  0  0  0  0  0  0  0  0  0  0
   -2.4803    0.1515   -2.8190 C   0  0  0  0  0  0  0  0  0  0  0  0
   -2.3542    0.5812   -3.8253 H   0  0  0  0  0  0  0  0  0  0  0  0
   -3.7288    0.2359   -2.1860 C   0  0  0  0  0  0  0  0  0  0  0  0
   -3.8806   -0.3777   -0.9272 C   0  0  0  0  0  0  0  0  0  0  0  0
   -4.8624   -0.3552   -0.4296 H   0  0  0  0  0  0  0  0  0  0  0  0
   -2.8152   -1.0182   -0.2804 C   0  0  0  0  0  0  0  0  0  0  0  0
   -0.0892   -0.6092   -2.9852 C   0  0  0  0  0  0  0  0  0  0  0  0
   -0.2858   -1.0923   -3.9641 H   0  0  0  0  0  0  0  0  0  0  0  0
    0.6731   -1.1954   -2.4437 H   0  0  0  0  0  0  0  0  0  0  0  0
    0.3719    0.3790   -3.1821 H   0  0  0  0  0  0  0  0  0  0  0  0
   -4.8810    0.9677   -2.8258 C   0  0  0  0  0  0  0  0  0  0  0  0
   -5.0270    1.9605   -2.3492 H   0  0  0  0  0  0  0  0  0  0  0  0
   -5.8324    0.4115   -2.7087 H   0  0  0  0  0  0  0  0  0  0  0  0
   -4.7084    1.1388   -3.9056 H   0  0  0  0  0  0  0  0  0  0  0  0
   -3.0391   -1.7493    1.0167 C   0  0  0  0  0  0  0  0  0  0  0  0
   -2.1611   -1.6781    1.6838 H   0  0  0  0  0  0  0  0  0  0  0  0
   -3.2532   -2.8240    0.8227 H   0  0  0  0  0  0  0  0  0  0  0  0
   -3.9053   -1.3302    1.5612 H   0  0  0  0  0  0  0  0  0  0  0  0
  1  2  1  0  0  0  0
  1  5  1  0  0  0  0
  1  3  1  0  0  0  0
  1  4  1  0  0  0  0
  5  6  1  0  0  0  0
  5 16  1  0  0  0  0
  5  7  1  0  0  0  0
  7  9  1  0  0  0  0
  7  8  1  0  0  0  0
  9 10  1  0  0  0  0
  9 11  1  0  0  0  0
  9 12  1  0  0  0  0
 13 14  1  0  0  0  0
 13 15  1  0  0  0  0
  7 13  1  0  0  0  0
 13 16  1  0  0  0  0
 16 17  1  0  0  0  0
 16 18  1  0  0  0  0
 19 21  1  0  0  0  0
 20 21  1  0  0  0  0
 19 22  1  0  0  0  0
 22 25  1  0  0  0  0
 22 23  1  0  0  0  0
 22 24  1  0  0  0  0
 20 25  1  0  0  0  0
 25 26  1  0  0  0  0
 25 27  1  0  0  0  0
 28 29  2  0  0  0  0
 29 30  1  0  0  0  0
 30 31  1  0  0  0  0
 30 32  2  0  0  0  0
 32 33  1  0  0  0  0
 33 35  2  0  0  0  0
 33 34  1  0  0  0  0
 28 35  1  0  0  0  0
 19 28  1  0  0  0  0
 36 37  1  0  0  0  0
 36 38  1  0  0  0  0
 36 39  1  0  0  0  0
 29 36  1  0  0  0  0
 40 41  1  0  0  0  0
 40 42  1  0  0  0  0
 40 43  1  0  0  0  0
 32 40  1  0  0  0  0
 44 45  1  0  0  0  0
 44 46  1  0  0  0  0
 44 47  1  0  0  0  0
 35 44  1  0  0  0  0
 48 49  2  0  0  0  0
 49 50  1  0  0  0  0
 50 51  1  0  0  0  0
 50 52  2  0  0  0  0
 52 53  1  0  0  0  0
 53 55  2  0  0  0  0
 53 54  1  0  0  0  0
 48 55  1  0  0  0  0
 20 48  1  0  0  0  0
 56 57  1  0  0  0  0
 56 58  1  0  0  0  0
 56 59  1  0  0  0  0
 49 56  1  0  0  0  0
 60 61  1  0  0  0  0
 60 62  1  0  0  0  0
 60 63  1  0  0  0  0
 52 60  1  0  0  0  0
 64 65  1  0  0  0  0
 64 66  1  0  0  0  0
 64 67  1  0  0  0  0
 55 64  1  0  0  0  0
 16 21  1  0  0  0  0
M  END
>  <DFT-ENERGY>
-1806.77989836

$$$$
