UFECOYMODN5_A1
  CDK     02022414123D

 73 77  0  0  0  0  0  0  0  0999 V2000
    0.6844   -0.2916   -0.0708 Ru  0  0  0  0  0  0  0  0  0  0  0  0
    2.4622   -0.2916   -1.4600 O   0  0  0  0  0  0  0  0  0  0  0  0
    1.8946   -1.2249    0.9333 C   0  0  0  0  0  0  0  0  0  0  0  0
    1.6618   -1.5178    1.9560 H   0  0  0  0  0  0  0  0  0  0  0  0
    2.6977    0.4836   -2.6858 C   0  0  0  0  0  0  0  0  0  0  0  0
    3.1076   -0.2161   -3.4444 H   0  0  0  0  0  0  0  0  0  0  0  0
    1.2762    0.9254   -3.0034 C   0  0  0  0  0  0  0  0  0  0  0  0
    1.2066    1.4265   -3.9716 H   0  0  0  0  0  0  0  0  0  0  0  0
    0.8884    1.6194   -2.2294 H   0  0  0  0  0  0  0  0  0  0  0  0
    0.5885    0.0544   -3.0120 H   0  0  0  0  0  0  0  0  0  0  0  0
    3.6363    1.6294   -2.3520 C   0  0  0  0  0  0  0  0  0  0  0  0
    3.3165    2.1134   -1.4077 H   0  0  0  0  0  0  0  0  0  0  0  0
    3.6310    2.4007   -3.1283 H   0  0  0  0  0  0  0  0  0  0  0  0
    4.6696    1.3004   -2.2015 H   0  0  0  0  0  0  0  0  0  0  0  0
    3.4544   -1.0900   -0.9550 C   0  0  0  0  0  0  0  0  0  0  0  0
    4.6235   -1.4387   -1.6080 C   0  0  0  0  0  0  0  0  0  0  0  0
    4.8423   -1.0883   -2.6139 H   0  0  0  0  0  0  0  0  0  0  0  0
    5.5247   -2.2698   -0.9505 C   0  0  0  0  0  0  0  0  0  0  0  0
    6.4471   -2.5574   -1.4592 H   0  0  0  0  0  0  0  0  0  0  0  0
    5.2747   -2.7414    0.3348 C   0  0  0  0  0  0  0  0  0  0  0  0
    5.9994   -3.3860    0.8290 H   0  0  0  0  0  0  0  0  0  0  0  0
    4.1050   -2.3811    0.9764 C   0  0  0  0  0  0  0  0  0  0  0  0
    3.9118   -2.7357    1.9877 H   0  0  0  0  0  0  0  0  0  0  0  0
    3.1695   -1.5657    0.3370 C   0  0  0  0  0  0  0  0  0  0  0  0
    1.2811    1.8895    0.4867 Cl  0  0  0  0  0  0  0  0  0  0  0  0
   -0.1339   -1.9876   -1.4221 Cl  0  0  0  0  0  0  0  0  0  0  0  0
   -1.2410   -0.7208    2.3320 N   0  0  0  0  0  0  0  0  0  0  0  0
   -2.1201    0.3850    0.6257 N   0  0  0  0  0  0  0  0  0  0  0  0
   -0.9235   -0.2427    1.0512 C   0  0  0  0  0  0  0  0  0  0  0  0
   -2.5871   -0.3967    2.6835 C   0  0  0  0  0  0  0  0  0  0  0  0
   -3.0131   -0.6800    3.6279 H   0  0  0  0  0  0  0  0  0  0  0  0
   -3.1297    0.2874    1.6261 C   0  0  0  0  0  0  0  0  0  0  0  0
   -4.1113    0.7040    1.4909 H   0  0  0  0  0  0  0  0  0  0  0  0
   -0.4058   -1.4503    3.2539 C   0  0  0  0  0  0  0  0  0  0  0  0
   -0.3622   -2.8638    3.1833 C   0  0  0  0  0  0  0  0  0  0  0  0
    0.3501   -3.5620    4.1640 C   0  0  0  0  0  0  0  0  0  0  0  0
    0.3805   -4.6492    4.1333 H   0  0  0  0  0  0  0  0  0  0  0  0
    1.0314   -2.8755    5.1816 C   0  0  0  0  0  0  0  0  0  0  0  0
    1.0342   -1.4737    5.1999 C   0  0  0  0  0  0  0  0  0  0  0  0
    1.5926   -0.9430    5.9682 H   0  0  0  0  0  0  0  0  0  0  0  0
    0.3312   -0.7442    4.2330 C   0  0  0  0  0  0  0  0  0  0  0  0
   -1.0291   -3.5789    2.0589 C   0  0  0  0  0  0  0  0  0  0  0  0
   -2.1190   -3.4368    2.0694 H   0  0  0  0  0  0  0  0  0  0  0  0
   -0.8373   -4.6589    2.0585 H   0  0  0  0  0  0  0  0  0  0  0  0
   -0.6699   -3.1911    1.0795 H   0  0  0  0  0  0  0  0  0  0  0  0
    1.7683   -3.6476    6.2263 C   0  0  0  0  0  0  0  0  0  0  0  0
    2.6311   -4.1752    5.7922 H   0  0  0  0  0  0  0  0  0  0  0  0
    1.1265   -4.4090    6.6929 H   0  0  0  0  0  0  0  0  0  0  0  0
    2.1536   -3.0128    7.0352 H   0  0  0  0  0  0  0  0  0  0  0  0
    0.3845    0.7448    4.2045 C   0  0  0  0  0  0  0  0  0  0  0  0
    1.0686    1.1671    4.9507 H   0  0  0  0  0  0  0  0  0  0  0  0
   -0.6045    1.1950    4.3702 H   0  0  0  0  0  0  0  0  0  0  0  0
    0.7327    1.1048    3.2118 H   0  0  0  0  0  0  0  0  0  0  0  0
   -2.3798    1.0563   -0.6276 C   0  0  0  0  0  0  0  0  0  0  0  0
   -2.1630    2.4515   -0.7335 C   0  0  0  0  0  0  0  0  0  0  0  0
   -2.4985    3.1011   -1.9305 C   0  0  0  0  0  0  0  0  0  0  0  0
   -2.3292    4.1725   -2.0170 H   0  0  0  0  0  0  0  0  0  0  0  0
   -3.0437    2.3912   -3.0069 C   0  0  0  0  0  0  0  0  0  0  0  0
   -3.2568    1.0105   -2.8901 C   0  0  0  0  0  0  0  0  0  0  0  0
   -3.6776    0.4566   -3.7270 H   0  0  0  0  0  0  0  0  0  0  0  0
   -2.9330    0.3277   -1.7105 C   0  0  0  0  0  0  0  0  0  0  0  0
   -1.5993    3.2607    0.3842 C   0  0  0  0  0  0  0  0  0  0  0  0
   -0.6937    3.8040    0.0587 H   0  0  0  0  0  0  0  0  0  0  0  0
   -1.2697    2.6581    1.2449 H   0  0  0  0  0  0  0  0  0  0  0  0
   -2.3192    4.0031    0.7509 H   0  0  0  0  0  0  0  0  0  0  0  0
   -3.4042    3.0913   -4.2766 C   0  0  0  0  0  0  0  0  0  0  0  0
   -4.4803    3.0038   -4.4866 H   0  0  0  0  0  0  0  0  0  0  0  0
   -2.8716    2.6577   -5.1357 H   0  0  0  0  0  0  0  0  0  0  0  0
   -3.1653    4.1625   -4.2569 H   0  0  0  0  0  0  0  0  0  0  0  0
   -3.1932   -1.1383   -1.6374 C   0  0  0  0  0  0  0  0  0  0  0  0
   -2.6985   -1.6674   -2.4720 H   0  0  0  0  0  0  0  0  0  0  0  0
   -4.2660   -1.3625   -1.6893 H   0  0  0  0  0  0  0  0  0  0  0  0
   -2.7929   -1.6136   -0.7284 H   0  0  0  0  0  0  0  0  0  0  0  0
  1  2  1  0  0  0  0
  1  3  2  0  0  0  0
  3  4  1  0  0  0  0
  2  5  1  0  0  0  0
  5  6  1  0  0  0  0
  5  7  1  0  0  0  0
  7  8  1  0  0  0  0
  7  9  1  0  0  0  0
  7 10  1  0  0  0  0
  5 11  1  0  0  0  0
 11 12  1  0  0  0  0
 11 13  1  0  0  0  0
 11 14  1  0  0  0  0
  2 15  1  0  0  0  0
 15 24  1  0  0  0  0
 15 16  2  0  0  0  0
 16 17  1  0  0  0  0
 16 18  1  0  0  0  0
 18 19  1  0  0  0  0
 18 20  2  0  0  0  0
 20 21  1  0  0  0  0
 20 22  1  0  0  0  0
 22 24  2  0  0  0  0
 22 23  1  0  0  0  0
  3 24  1  0  0  0  0
  1 25  1  0  0  0  0
  1 26  1  0  0  0  0
 27 29  1  0  0  0  0
 28 29  1  0  0  0  0
 27 30  1  0  0  0  0
 30 31  1  0  0  0  0
 28 32  1  0  0  0  0
 32 33  1  0  0  0  0
 27 34  1  0  0  0  0
 34 35  2  0  0  0  0
 35 36  1  0  0  0  0
 36 37  1  0  0  0  0
 36 38  2  0  0  0  0
 38 39  1  0  0  0  0
 39 40  1  0  0  0  0
 34 41  1  0  0  0  0
 35 42  1  0  0  0  0
 42 43  1  0  0  0  0
 42 44  1  0  0  0  0
 42 45  1  0  0  0  0
 38 46  1  0  0  0  0
 46 47  1  0  0  0  0
 46 48  1  0  0  0  0
 46 49  1  0  0  0  0
 41 50  1  0  0  0  0
 50 51  1  0  0  0  0
 50 52  1  0  0  0  0
 50 53  1  0  0  0  0
 28 54  1  0  0  0  0
 54 55  1  0  0  0  0
 55 56  2  0  0  0  0
 56 57  1  0  0  0  0
 56 58  1  0  0  0  0
 58 59  2  0  0  0  0
 59 60  1  0  0  0  0
 54 61  2  0  0  0  0
 55 62  1  0  0  0  0
 62 63  1  0  0  0  0
 62 64  1  0  0  0  0
 62 65  1  0  0  0  0
 58 66  1  0  0  0  0
 66 67  1  0  0  0  0
 66 68  1  0  0  0  0
 66 69  1  0  0  0  0
 61 70  1  0  0  0  0
 70 71  1  0  0  0  0
 70 72  1  0  0  0  0
 70 73  1  0  0  0  0
 30 32  2  0  0  0  0
 39 41  2  0  0  0  0
 59 61  1  0  0  0  0
  1 29  1  0  0  0  0
M  END
> <FrozenCore-PM6_ENERGY>
65.469

> <RMSD_CONF_CG-CS>
3.102838

> <RMSD_CONF_GO-CS>
0.000000

> <UID>


> <freeEnergyA>
-2400.94416765

> <freeEnergyF>
-2400.92865753

> <freeEnergyE>
-2400.94416765

> <freeEnergyC>
-2055.68845897

> <freeEnergyL>
-923.082037872

> <freeEnergyX>
-2134.2238547

> <freeEnergyZ>
-2055.67028513

> <freeEnergyD>
-2055.71274774

> <G_Propene>
-117.738020895

> <G_Ethene>
-78.4716324751

> <G_HoveydaProd>
-502.204109499

> <G_SIMes>
-924.27249048

> <G_HG_RuCl2_SIMes>
-2402.13728523

> <DG_referenceProductionBarrier>
0.01468968

> <hartree_to_kcalmol>
627.49467516

> <DFT_IDENTIFIER>
1706950440836

> <DFT_MACHINE>
158.36.42.38

> <XTB_IDENTIFIER>
1706949608391

> <XTB_MACHINE>
158.36.42.38

> <DE_Synth>
1.67225573945049552

> <DESCRIPTOR_DEFINITION_1>
desc1=( echo "1 * ( e( $hartree_to_kcalmol * ( ( $freeEnergyZ - $freeEnergyD ) - ( $freeEnergyX + 2*$G_Ethene - $freeEnergyD - 2*$G_Propene ) - $DDG_reference_HGII ) / $kT ) ) " | bc -l )

> <DESCRIPTOR_DEFINITION_2>
desc2=$( echo "1 * ( $hartree_to_kcalmol * ( ( $freeEnergyZ - $freeEnergyD ) - ( $freeEnergyX + 2*$G_Ethene - $freeEnergyD - 2*$G_Propene ) ) )" | bc -l )

> <DESCRIPTOR_DEFINITION_3>
desc3=$( echo "1 * $hartree_to_kcalmol * ( $DG_referenceProductionBarrier - ( $freeEnergyX + 2*$G_Ethene - $freeEnergyD - 2*$G_Propene ) )" | bc -l )

> <WEIGHT_DEFINITION_1>
w1=$( echo "1 / ( 1 + e( $hartree_to_kcalmol * ( ( ( $freeEnergyX + 2*$G_Ethene - $freeEnergyD - 2*$G_Propene ) ) - ( $DG_referenceProductionBarrier + $magnitude4 ) ) / $kT ) )" | bc -l )

> <WEIGHT_DEFINITION_2>
w2=$( echo "1 / ( 1 + e( $hartree_to_kcalmol * ( ABS( $freeEnergyC + $G_HoveydaProd - $freeEnergyA - 2*${G_Ethene} - $DG_referencePrecursorStabilityHII ) - ( $DDG_referencePrecursorStability + $magnitude1 ) ) / $kT ) )" | bc -l )

> <WEIGHT_DEFINITION_3>
w3=$( echo "1 / ( 1 + e( $hartree_to_kcalmol * ( ( $freeEnergyE + $G_SIMes - $G_HG_RuCl2_SIMes - $freeEnergyL ) - ( $DG_referenceSynt  + $magnitude1 ) ) / $kT ) )" | bc -l )

> <WEIGHT_DEFINITION_4>
w4=$( echo "1 / ( 1 + e( $hartree_to_kcalmol * ( - ( $freeEnergyF - $freeEnergyA ) + $magnitude2 ) / $kT ) )" | bc -l )

> <FITNESS_DEFINITION>
fitness=$( echo "( $desc1 + $desc2 + $desc3 ) * $w1 * $w2 * $w3 * $w4" | bc -l )

> <DESCRIPTOR_1>
.23444142954157464057

> <DESCRIPTOR_2>
13.047327482538521832

> <DESCRIPTOR_3>
.377466284369122200

> <WEIGHT_1>
.99994547655470431753

> <WEIGHT_2>
.99999999607894741827

> <WEIGHT_3>
.99999999981506093147

> <WEIGHT_4>
.99998386060964023407

> <FITNESS>
13.65826995209639804267

$$$$
