
  CDK     08142400313D

 43 46  0  0  0  0  0  0  0  0999 V2000
    0.9858   -0.9193   -0.2389 Ru  0  0  0  0  0  0  0  0  0  0  0  0
    2.3948   -0.7878   -1.5876 C   0  0  0  0  0  0  0  0  0  0  0  0
    2.1176   -1.1817   -2.5827 H   0  0  0  0  0  0  0  0  0  0  0  0
    2.9713   -1.9101   -0.6223 C   0  0  0  0  0  0  0  0  0  0  0  0
    3.0023   -2.8565   -1.1911 H   0  0  0  0  0  0  0  0  0  0  0  0
    2.1755   -2.1638    0.7127 C   0  0  0  0  0  0  0  0  0  0  0  0
    2.6772   -1.7634    1.6106 H   0  0  0  0  0  0  0  0  0  0  0  0
    1.7635   -3.1857    0.7902 H   0  0  0  0  0  0  0  0  0  0  0  0
    3.9592   -1.5292   -0.3050 H   0  0  0  0  0  0  0  0  0  0  0  0
    2.9991    0.1365   -1.5789 H   0  0  0  0  0  0  0  0  0  0  0  0
   -0.0553   -2.6839   -1.4248 Cl  0  0  0  0  0  0  0  0  0  0  0  0
    2.1168    0.8303    0.9749 Cl  0  0  0  0  0  0  0  0  0  0  0  0
   -0.6366    0.1579    0.0864 C   0  0  0  0  0  0  0  0  0  0  0  0
   -1.3077    0.7748   -0.9243 N   0  0  0  0  0  0  0  0  0  0  0  0
   -2.2036    1.8316   -0.4139 C   0  0  0  0  0  0  0  0  0  0  0  0
   -2.3950    1.3882    1.0426 C   0  0  0  0  0  0  0  0  0  0  0  0
   -1.2004    0.5392    1.2614 N   0  0  0  0  0  0  0  0  0  0  0  0
   -1.7018    2.8198   -0.4917 H   0  0  0  0  0  0  0  0  0  0  0  0
   -3.1478    1.8496   -0.9885 H   0  0  0  0  0  0  0  0  0  0  0  0
   -3.3120    0.7765    1.1791 H   0  0  0  0  0  0  0  0  0  0  0  0
   -2.4055    2.2318    1.7532 H   0  0  0  0  0  0  0  0  0  0  0  0
   -0.8245    0.7418   -2.2593 C   0  0  0  0  0  0  0  0  0  0  0  0
    0.2024    0.5898   -4.8674 C   0  0  0  0  0  0  0  0  0  0  0  0
   -1.3722   -0.1491   -3.2001 C   0  0  0  0  0  0  0  0  0  0  0  0
    0.2240    1.5828   -2.6776 C   0  0  0  0  0  0  0  0  0  0  0  0
    0.7526    1.5160   -3.9678 C   0  0  0  0  0  0  0  0  0  0  0  0
   -0.8612   -0.2454   -4.4964 C   0  0  0  0  0  0  0  0  0  0  0  0
    1.5799    2.1812   -4.2453 H   0  0  0  0  0  0  0  0  0  0  0  0
   -1.2993   -0.9742   -5.1894 H   0  0  0  0  0  0  0  0  0  0  0  0
    0.6128    0.5187   -5.8843 H   0  0  0  0  0  0  0  0  0  0  0  0
    0.7228    2.4630   -1.7850 F   0  0  0  0  0  0  0  0  0  0  0  0
   -2.4081   -0.9150   -2.8242 F   0  0  0  0  0  0  0  0  0  0  0  0
   -0.7630    0.1246    2.5347 C   0  0  0  0  0  0  0  0  0  0  0  0
    0.1616   -0.6894    5.0787 C   0  0  0  0  0  0  0  0  0  0  0  0
   -0.5197   -1.2287    2.8344 C   0  0  0  0  0  0  0  0  0  0  0  0
   -0.5234    1.0540    3.5650 C   0  0  0  0  0  0  0  0  0  0  0  0
   -0.0817    0.6694    4.8298 C   0  0  0  0  0  0  0  0  0  0  0  0
   -0.0492   -1.6486    4.0784 C   0  0  0  0  0  0  0  0  0  0  0  0
    0.0925    1.4425    5.5886 H   0  0  0  0  0  0  0  0  0  0  0  0
    0.1338   -2.7177    4.2449 H   0  0  0  0  0  0  0  0  0  0  0  0
    0.5267   -1.0038    6.0657 H   0  0  0  0  0  0  0  0  0  0  0  0
   -0.7255    2.3680    3.3010 F   0  0  0  0  0  0  0  0  0  0  0  0
   -0.7362   -2.1430    1.8581 F   0  0  0  0  0  0  0  0  0  0  0  0
  2  4  1  0  0  0  0
  2  1  1  0  0  0  0
  2  3  1  0  0  0  0
  4  6  1  0  0  0  0
  4  5  1  0  0  0  0
  6  1  1  0  0  0  0
  6  8  1  0  0  0  0
  7  6  1  0  0  0  0
  9  4  1  0  0  0  0
 10  2  1  0  0  0  0
  1 11  1  0  0  0  0
  1 12  1  0  0  0  0
 13 14  1  0  0  0  0
 13 17  1  0  0  0  0
 14 15  1  0  0  0  0
 15 18  1  0  0  0  0
 15 19  1  0  0  0  0
 15 16  1  0  0  0  0
 16 20  1  0  0  0  0
 16 21  1  0  0  0  0
 16 17  1  0  0  0  0
 22 25  2  0  0  0  0
 22 24  1  0  0  0  0
 23 26  2  0  0  0  0
 23 27  1  0  0  0  0
 23 30  1  0  0  0  0
 24 27  2  0  0  0  0
 24 32  1  0  0  0  0
 25 26  1  0  0  0  0
 25 31  1  0  0  0  0
 26 28  1  0  0  0  0
 27 29  1  0  0  0  0
 14 22  1  0  0  0  0
 33 36  2  0  0  0  0
 33 35  1  0  0  0  0
 34 37  2  0  0  0  0
 34 38  1  0  0  0  0
 34 41  1  0  0  0  0
 35 38  2  0  0  0  0
 35 43  1  0  0  0  0
 36 37  1  0  0  0  0
 36 42  1  0  0  0  0
 37 39  1  0  0  0  0
 38 40  1  0  0  0  0
 17 33  1  0  0  0  0
  1 13  1  0  0  0  0
M  END
>  <DFT-ENERGY>
-2217.92463032

$$$$
