
  CDK     08132421123D

 43 47  0  0  0  0  0  0  0  0999 V2000
    0.3619    0.8581   -3.0652 H   0  0  0  0  0  0  0  0  0  0  0  0
    1.5675    0.6269   -3.1508 C   0  0  0  0  0  0  0  0  0  0  0  0
    1.4781    0.6932   -4.2576 H   0  0  0  0  0  0  0  0  0  0  0  0
    1.6467   -0.6658   -2.4030 C   0  0  0  0  0  0  0  0  0  0  0  0
    2.6016   -0.9131   -1.9107 H   0  0  0  0  0  0  0  0  0  0  0  0
    1.1201   -1.5204   -2.8630 H   0  0  0  0  0  0  0  0  0  0  0  0
    0.4848    0.6391   -1.3092 Ru  0  0  0  0  0  0  0  0  0  0  0  0
    2.0358    1.7435   -2.3197 C   0  0  0  0  0  0  0  0  0  0  0  0
    2.9764    1.6435   -1.7642 H   0  0  0  0  0  0  0  0  0  0  0  0
    1.7639    2.7654   -2.6371 H   0  0  0  0  0  0  0  0  0  0  0  0
    2.2505    0.6863    0.3895 Cl  0  0  0  0  0  0  0  0  0  0  0  0
   -1.6114    0.0860   -2.3248 Cl  0  0  0  0  0  0  0  0  0  0  0  0
   -0.3898    0.0075    0.4182 C   0  0  0  0  0  0  0  0  0  0  0  0
   -0.6723    0.7737    1.5176 N   0  0  0  0  0  0  0  0  0  0  0  0
   -1.2745   -0.0301    2.6070 C   0  0  0  0  0  0  0  0  0  0  0  0
   -1.7765   -1.2572    1.8443 C   0  0  0  0  0  0  0  0  0  0  0  0
   -0.9299   -1.2174    0.6324 N   0  0  0  0  0  0  0  0  0  0  0  0
   -0.4999   -0.2914    3.3534 H   0  0  0  0  0  0  0  0  0  0  0  0
   -2.0824    0.5371    3.1039 H   0  0  0  0  0  0  0  0  0  0  0  0
   -2.8438   -1.1805    1.5525 H   0  0  0  0  0  0  0  0  0  0  0  0
   -1.6157   -2.2019    2.3952 H   0  0  0  0  0  0  0  0  0  0  0  0
   -0.2375    2.1008    1.6999 C   0  0  0  0  0  0  0  0  0  0  0  0
    0.6036    4.7960    2.0358 C   0  0  0  0  0  0  0  0  0  0  0  0
   -0.3508    3.0608    0.6755 C   0  0  0  0  0  0  0  0  0  0  0  0
    0.3255    2.5630    2.9071 C   0  0  0  0  0  0  0  0  0  0  0  0
    0.7285    3.8856    3.0929 C   0  0  0  0  0  0  0  0  0  0  0  0
    0.0643    4.3818    0.8098 C   0  0  0  0  0  0  0  0  0  0  0  0
    1.1614    4.1694    4.0606 H   0  0  0  0  0  0  0  0  0  0  0  0
   -0.0490    5.0633   -0.0424 H   0  0  0  0  0  0  0  0  0  0  0  0
    0.9342    5.8350    2.1659 H   0  0  0  0  0  0  0  0  0  0  0  0
    0.4920    1.6856    3.9293 F   0  0  0  0  0  0  0  0  0  0  0  0
   -0.8905    2.6608   -0.5138 F   0  0  0  0  0  0  0  0  0  0  0  0
   -0.8515   -2.3190   -0.2517 C   0  0  0  0  0  0  0  0  0  0  0  0
   -0.7208   -4.5588   -1.9605 C   0  0  0  0  0  0  0  0  0  0  0  0
   -2.0048   -2.8455   -0.8619 C   0  0  0  0  0  0  0  0  0  0  0  0
    0.3681   -2.9754   -0.5021 C   0  0  0  0  0  0  0  0  0  0  0  0
    0.4506   -4.0743   -1.3617 C   0  0  0  0  0  0  0  0  0  0  0  0
   -1.9603   -3.9529   -1.7085 C   0  0  0  0  0  0  0  0  0  0  0  0
    1.4298   -4.5391   -1.5330 H   0  0  0  0  0  0  0  0  0  0  0  0
   -2.8905   -4.3097   -2.1681 H   0  0  0  0  0  0  0  0  0  0  0  0
   -0.6679   -5.4255   -2.6334 H   0  0  0  0  0  0  0  0  0  0  0  0
    1.4806   -2.5239    0.1041 F   0  0  0  0  0  0  0  0  0  0  0  0
   -3.1908   -2.2482   -0.6046 F   0  0  0  0  0  0  0  0  0  0  0  0
  1  2  1  0  0  0  0
  1  7  1  0  0  0  0
  2  3  1  0  0  0  0
  2  4  1  0  0  0  0
  4  5  1  0  0  0  0
  6  4  1  0  0  0  0
  7  8  1  0  0  0  0
  7  4  1  0  0  0  0
  8  2  1  0  0  0  0
  8  9  1  0  0  0  0
 10  8  1  0  0  0  0
  7 11  1  0  0  0  0
  7 12  1  0  0  0  0
 13 14  1  0  0  0  0
 13 17  1  0  0  0  0
 14 15  1  0  0  0  0
 15 18  1  0  0  0  0
 15 19  1  0  0  0  0
 15 16  1  0  0  0  0
 16 20  1  0  0  0  0
 16 21  1  0  0  0  0
 16 17  1  0  0  0  0
 22 25  2  0  0  0  0
 22 24  1  0  0  0  0
 23 26  2  0  0  0  0
 23 27  1  0  0  0  0
 23 30  1  0  0  0  0
 24 27  2  0  0  0  0
 24 32  1  0  0  0  0
 25 26  1  0  0  0  0
 25 31  1  0  0  0  0
 26 28  1  0  0  0  0
 27 29  1  0  0  0  0
 14 22  1  0  0  0  0
 33 36  2  0  0  0  0
 33 35  1  0  0  0  0
 34 37  2  0  0  0  0
 34 38  1  0  0  0  0
 34 41  1  0  0  0  0
 35 38  2  0  0  0  0
 35 43  1  0  0  0  0
 36 37  1  0  0  0  0
 36 42  1  0  0  0  0
 37 39  1  0  0  0  0
 38 40  1  0  0  0  0
 17 33  1  0  0  0  0
  7 13  1  0  0  0  0
M  END
>  <DFT-ENERGY>
-2217.89029228

$$$$
