
  CDK     08132417353D

 49 52  0  0  0  0  0  0  0  0999 V2000
   -0.3612   -2.2008   -2.8087 C   0  0  0  0  0  0  0  0  0  0  0  0
    0.7031   -2.4920   -2.7640 H   0  0  0  0  0  0  0  0  0  0  0  0
   -0.8243   -2.6035   -3.7377 H   0  0  0  0  0  0  0  0  0  0  0  0
   -0.8852   -2.6829   -1.9596 H   0  0  0  0  0  0  0  0  0  0  0  0
   -0.5382   -0.7013   -2.7915 C   0  0  0  0  0  0  0  0  0  0  0  0
   -1.5803   -0.3362   -2.8611 H   0  0  0  0  0  0  0  0  0  0  0  0
    0.4441    0.2093   -3.2651 C   0  0  0  0  0  0  0  0  0  0  0  0
    1.4513   -0.2048   -3.4480 H   0  0  0  0  0  0  0  0  0  0  0  0
    0.0278    1.4421   -4.0335 C   0  0  0  0  0  0  0  0  0  0  0  0
    0.8437    2.1830   -4.1292 H   0  0  0  0  0  0  0  0  0  0  0  0
   -0.2686    1.1344   -5.0596 H   0  0  0  0  0  0  0  0  0  0  0  0
   -0.8478    1.9196   -3.5501 H   0  0  0  0  0  0  0  0  0  0  0  0
    1.2157    1.4493   -1.4616 C   0  0  0  0  0  0  0  0  0  0  0  0
    0.7926    2.4575   -1.6599 H   0  0  0  0  0  0  0  0  0  0  0  0
    2.3105    1.3038   -1.5936 H   0  0  0  0  0  0  0  0  0  0  0  0
    0.1621    0.0714   -0.8751 Ru  0  0  0  0  0  0  0  0  0  0  0  0
   -1.7742    1.4910   -0.9533 Cl  0  0  0  0  0  0  0  0  0  0  0  0
    2.0865   -1.3611   -0.8134 Cl  0  0  0  0  0  0  0  0  0  0  0  0
    0.0253    0.0371    1.0961 C   0  0  0  0  0  0  0  0  0  0  0  0
    0.5361    0.9184    2.0000 N   0  0  0  0  0  0  0  0  0  0  0  0
    0.0459    0.6443    3.3694 C   0  0  0  0  0  0  0  0  0  0  0  0
   -0.4496   -0.8041    3.2456 C   0  0  0  0  0  0  0  0  0  0  0  0
   -0.6508   -0.9212    1.7873 N   0  0  0  0  0  0  0  0  0  0  0  0
    0.8636    0.7590    4.1050 H   0  0  0  0  0  0  0  0  0  0  0  0
   -0.7758    1.3481    3.6186 H   0  0  0  0  0  0  0  0  0  0  0  0
   -1.3966   -0.9841    3.7880 H   0  0  0  0  0  0  0  0  0  0  0  0
    0.3123   -1.5399    3.5794 H   0  0  0  0  0  0  0  0  0  0  0  0
    1.0447    2.1869    1.6273 C   0  0  0  0  0  0  0  0  0  0  0  0
    2.0322    4.6865    0.7962 C   0  0  0  0  0  0  0  0  0  0  0  0
    0.2085    3.3165    1.5622 C   0  0  0  0  0  0  0  0  0  0  0  0
    2.3992    2.3546    1.2857 C   0  0  0  0  0  0  0  0  0  0  0  0
    2.9020    3.5880    0.8599 C   0  0  0  0  0  0  0  0  0  0  0  0
    0.6801    4.5642    1.1501 C   0  0  0  0  0  0  0  0  0  0  0  0
    3.9625    3.6672    0.5894 H   0  0  0  0  0  0  0  0  0  0  0  0
   -0.0159    5.4110    1.1031 H   0  0  0  0  0  0  0  0  0  0  0  0
    2.4165    5.6603    0.4625 H   0  0  0  0  0  0  0  0  0  0  0  0
    3.2130    1.2860    1.3497 F   0  0  0  0  0  0  0  0  0  0  0  0
   -1.0840    3.1666    1.9152 F   0  0  0  0  0  0  0  0  0  0  0  0
   -1.0853   -2.1142    1.1552 C   0  0  0  0  0  0  0  0  0  0  0  0
   -1.9411   -4.4792   -0.1058 C   0  0  0  0  0  0  0  0  0  0  0  0
   -2.3691   -2.2076    0.5814 C   0  0  0  0  0  0  0  0  0  0  0  0
   -0.2584   -3.2542    1.1013 C   0  0  0  0  0  0  0  0  0  0  0  0
   -0.6635   -4.4328    0.4732 C   0  0  0  0  0  0  0  0  0  0  0  0
   -2.8025   -3.3734   -0.0592 C   0  0  0  0  0  0  0  0  0  0  0  0
    0.0240   -5.2872    0.4428 H   0  0  0  0  0  0  0  0  0  0  0  0
   -3.8061   -3.3964   -0.5022 H   0  0  0  0  0  0  0  0  0  0  0  0
   -2.2716   -5.3988   -0.6082 H   0  0  0  0  0  0  0  0  0  0  0  0
    0.9473   -3.1847    1.6949 F   0  0  0  0  0  0  0  0  0  0  0  0
   -3.1853   -1.1437    0.6547 F   0  0  0  0  0  0  0  0  0  0  0  0
  1  2  1  0  0  0  0
  1  5  1  0  0  0  0
  3  1  1  0  0  0  0
  4  1  1  0  0  0  0
  5  6  1  0  0  0  0
  5 16  1  0  0  0  0
  5  7  1  0  0  0  0
  7  9  1  0  0  0  0
  7  8  1  0  0  0  0
  9 10  1  0  0  0  0
 11  9  1  0  0  0  0
 12  9  1  0  0  0  0
 13 14  1  0  0  0  0
 13 15  1  0  0  0  0
 13  7  1  0  0  0  0
 16 13  1  0  0  0  0
 16 17  1  0  0  0  0
 16 18  1  0  0  0  0
 19 20  1  0  0  0  0
 19 23  1  0  0  0  0
 20 21  1  0  0  0  0
 21 24  1  0  0  0  0
 21 25  1  0  0  0  0
 21 22  1  0  0  0  0
 22 26  1  0  0  0  0
 22 27  1  0  0  0  0
 22 23  1  0  0  0  0
 28 31  2  0  0  0  0
 28 30  1  0  0  0  0
 29 32  2  0  0  0  0
 29 33  1  0  0  0  0
 29 36  1  0  0  0  0
 30 33  2  0  0  0  0
 30 38  1  0  0  0  0
 31 32  1  0  0  0  0
 31 37  1  0  0  0  0
 32 34  1  0  0  0  0
 33 35  1  0  0  0  0
 20 28  1  0  0  0  0
 39 42  2  0  0  0  0
 39 41  1  0  0  0  0
 40 43  2  0  0  0  0
 40 44  1  0  0  0  0
 40 47  1  0  0  0  0
 41 44  2  0  0  0  0
 41 49  1  0  0  0  0
 42 43  1  0  0  0  0
 42 48  1  0  0  0  0
 43 45  1  0  0  0  0
 44 46  1  0  0  0  0
 23 39  1  0  0  0  0
 16 19  1  0  0  0  0
M  END
>  <DFT-ENERGY>
-2296.4325488

$$$$
