DFP-1_A2
  CDK     08132410193D

 57 61  0  0  0  0  0  0  0  0999 V2000
    0.3566    0.2601    0.0758 Ru  0  0  0  0  0  0  0  0  0  0  0  0
    2.1344    0.2601   -1.3134 O   0  0  0  0  0  0  0  0  0  0  0  0
    1.5668    1.1934    1.0799 C   0  0  0  0  0  0  0  0  0  0  0  0
    1.3340    1.4863    2.1026 H   0  0  0  0  0  0  0  0  0  0  0  0
    2.3699   -0.5151   -2.5392 C   0  0  0  0  0  0  0  0  0  0  0  0
    2.7809    0.1843   -3.2977 H   0  0  0  0  0  0  0  0  0  0  0  0
    0.9467   -0.9532   -2.8565 C   0  0  0  0  0  0  0  0  0  0  0  0
    0.8771   -1.4459   -3.8293 H   0  0  0  0  0  0  0  0  0  0  0  0
    0.5643   -1.6549   -2.0875 H   0  0  0  0  0  0  0  0  0  0  0  0
    0.2629   -0.0787   -2.8610 H   0  0  0  0  0  0  0  0  0  0  0  0
    3.3050   -1.6624   -2.2040 C   0  0  0  0  0  0  0  0  0  0  0  0
    4.3392   -1.3362   -2.0529 H   0  0  0  0  0  0  0  0  0  0  0  0
    2.9847   -2.1455   -1.2586 H   0  0  0  0  0  0  0  0  0  0  0  0
    3.2991   -2.4353   -2.9788 H   0  0  0  0  0  0  0  0  0  0  0  0
    3.1266    1.0585   -0.8084 C   0  0  0  0  0  0  0  0  0  0  0  0
    4.2957    1.4073   -1.4614 C   0  0  0  0  0  0  0  0  0  0  0  0
    4.5146    1.0574   -2.4676 H   0  0  0  0  0  0  0  0  0  0  0  0
    5.1969    2.2384   -0.8039 C   0  0  0  0  0  0  0  0  0  0  0  0
    6.1193    2.5263   -1.3129 H   0  0  0  0  0  0  0  0  0  0  0  0
    4.9469    2.7100    0.4814 C   0  0  0  0  0  0  0  0  0  0  0  0
    5.6717    3.3550    0.9754 H   0  0  0  0  0  0  0  0  0  0  0  0
    3.7772    2.3497    1.1230 C   0  0  0  0  0  0  0  0  0  0  0  0
    3.5840    2.7043    2.1343 H   0  0  0  0  0  0  0  0  0  0  0  0
    2.8417    1.5342    0.4836 C   0  0  0  0  0  0  0  0  0  0  0  0
    0.9584   -1.9399    0.6381 Cl  0  0  0  0  0  0  0  0  0  0  0  0
   -0.4678    1.9686   -1.2855 Cl  0  0  0  0  0  0  0  0  0  0  0  0
   -1.2025    0.2548    1.2377 C   0  0  0  0  0  0  0  0  0  0  0  0
   -2.3189   -0.4445    0.7439 N   0  0  0  0  0  0  0  0  0  0  0  0
   -3.5182   -0.4348    1.6427 C   0  0  0  0  0  0  0  0  0  0  0  0
   -3.0241    0.3921    2.8496 C   0  0  0  0  0  0  0  0  0  0  0  0
   -1.6063    0.7524    2.4785 N   0  0  0  0  0  0  0  0  0  0  0  0
   -4.3830    0.0358    1.1323 H   0  0  0  0  0  0  0  0  0  0  0  0
   -3.8021   -1.4687    1.9255 H   0  0  0  0  0  0  0  0  0  0  0  0
   -3.0353   -0.1923    3.7917 H   0  0  0  0  0  0  0  0  0  0  0  0
   -3.6233    1.3124    3.0019 H   0  0  0  0  0  0  0  0  0  0  0  0
   -2.3519   -1.1274   -0.5106 C   0  0  0  0  0  0  0  0  0  0  0  0
   -2.4685   -2.4948   -2.9900 C   0  0  0  0  0  0  0  0  0  0  0  0
   -2.0144   -2.4973   -0.6236 C   0  0  0  0  0  0  0  0  0  0  0  0
   -2.7550   -0.4791   -1.7021 C   0  0  0  0  0  0  0  0  0  0  0  0
   -2.8160   -1.1421   -2.9318 C   0  0  0  0  0  0  0  0  0  0  0  0
   -2.0661   -3.1826   -1.8416 C   0  0  0  0  0  0  0  0  0  0  0  0
   -3.1253   -0.6083   -3.8315 H   0  0  0  0  0  0  0  0  0  0  0  0
   -1.7900   -4.2368   -1.8932 H   0  0  0  0  0  0  0  0  0  0  0  0
   -2.5135   -3.0218   -3.9454 H   0  0  0  0  0  0  0  0  0  0  0  0
   -3.1089    0.7989   -1.6540 F   0  0  0  0  0  0  0  0  0  0  0  0
   -1.6616   -3.1685    0.4649 F   0  0  0  0  0  0  0  0  0  0  0  0
   -0.8642    1.5373    3.4106 C   0  0  0  0  0  0  0  0  0  0  0  0
    0.5468    3.0997    5.3138 C   0  0  0  0  0  0  0  0  0  0  0  0
   -0.1319    0.9501    4.4679 C   0  0  0  0  0  0  0  0  0  0  0  0
   -0.8698    2.9504    3.3721 C   0  0  0  0  0  0  0  0  0  0  0  0
   -0.1749    3.7332    4.2984 C   0  0  0  0  0  0  0  0  0  0  0  0
    0.5718    1.7053    5.4095 C   0  0  0  0  0  0  0  0  0  0  0  0
   -0.1951    4.8222    4.2285 H   0  0  0  0  0  0  0  0  0  0  0  0
    1.1333    1.2141    6.2061 H   0  0  0  0  0  0  0  0  0  0  0  0
    1.0949    3.7008    6.0427 H   0  0  0  0  0  0  0  0  0  0  0  0
   -1.5700    3.5678    2.4273 F   0  0  0  0  0  0  0  0  0  0  0  0
   -0.1146   -0.3733    4.5843 F   0  0  0  0  0  0  0  0  0  0  0  0
  1  2  1  0  0  0  0
  1  3  2  0  0  0  0
  3  4  1  0  0  0  0
  2  5  1  0  0  0  0
  5  6  1  0  0  0  0
  5  7  1  0  0  0  0
  7  8  1  0  0  0  0
  7  9  1  0  0  0  0
  7 10  1  0  0  0  0
  5 11  1  0  0  0  0
 11 12  1  0  0  0  0
 11 13  1  0  0  0  0
 11 14  1  0  0  0  0
  2 15  1  0  0  0  0
 15 24  1  0  0  0  0
 15 16  2  0  0  0  0
 16 17  1  0  0  0  0
 16 18  1  0  0  0  0
 18 19  1  0  0  0  0
 18 20  2  0  0  0  0
 20 21  1  0  0  0  0
 20 22  1  0  0  0  0
 22 24  2  0  0  0  0
 22 23  1  0  0  0  0
  3 24  1  0  0  0  0
  1 25  1  0  0  0  0
  1 26  1  0  0  0  0
 27 28  1  0  0  0  0
 27 31  1  0  0  0  0
 28 29  1  0  0  0  0
 29 32  1  0  0  0  0
 29 33  1  0  0  0  0
 29 30  1  0  0  0  0
 30 34  1  0  0  0  0
 30 35  1  0  0  0  0
 30 31  1  0  0  0  0
  1 27  1  0  0  0  0
 36 39  2  0  0  0  0
 36 38  1  0  0  0  0
 37 40  2  0  0  0  0
 37 41  1  0  0  0  0
 37 44  1  0  0  0  0
 38 41  2  0  0  0  0
 38 46  1  0  0  0  0
 39 40  1  0  0  0  0
 39 45  1  0  0  0  0
 40 42  1  0  0  0  0
 41 43  1  0  0  0  0
 28 36  1  0  0  0  0
 47 50  2  0  0  0  0
 47 49  1  0  0  0  0
 48 51  2  0  0  0  0
 48 52  1  0  0  0  0
 48 55  1  0  0  0  0
 49 52  2  0  0  0  0
 49 57  1  0  0  0  0
 50 51  1  0  0  0  0
 50 56  1  0  0  0  0
 51 53  1  0  0  0  0
 52 54  1  0  0  0  0
 31 47  1  0  0  0  0
M  END
> <FrozenCore-PM6_ENERGY>
-486.366

> <RMSD_CONF_CG-CS>
3.317555

> <RMSD_CONF_GO-CS>
0.000000

> <UID>


> <DESCRIPTOR_DEFINITION_1>
desc1=( echo "1 * ( e( $hartree_to_kcalmol * ( ( $freeEnergyZ - $freeEnergyD ) - ( $freeEnergyX + 2*$G_Ethene - $freeEnergyD - 2*$G_Propene ) - $DDG_reference_HGII ) / $kT ) ) " | bc -l )

> <DESCRIPTOR_DEFINITION_2>
desc1=( echo "1 * ( e( $hartree_to_kcalmol * ( ( $freeEnergyZ - $freeEnergyD ) - ( $freeEnergyX + 2*$G_Ethene - $freeEnergyD - 2*$G_Propene ) - $DDG_reference_HGII ) / $kT ) ) " | bc -l )

> <DESCRIPTOR_DEFINITION_3>
desc1=( echo "1 * ( e( $hartree_to_kcalmol * ( ( $freeEnergyZ - $freeEnergyD ) - ( $freeEnergyX + 2*$G_Ethene - $freeEnergyD - 2*$G_Propene ) - $DDG_reference_HGII ) / $kT ) ) " | bc -l )

> <WEIGHT_DEFINITION_1>
w1=$( echo "1 / ( 1 + e( $hartree_to_kcalmol * ( ( ( $freeEnergyX + 2*$G_Ethene - $freeEnergyD - 2*$G_Propene ) ) - ( $DG_referenceProductionBarrier + $magnitude4 ) ) / $kT ) )" | bc -l )

> <WEIGHT_DEFINITION_2>
w1=$( echo "1 / ( 1 + e( $hartree_to_kcalmol * ( ( ( $freeEnergyX + 2*$G_Ethene - $freeEnergyD - 2*$G_Propene ) ) - ( $DG_referenceProductionBarrier + $magnitude4 ) ) / $kT ) )" | bc -l )

> <WEIGHT_DEFINITION_3>
w1=$( echo "1 / ( 1 + e( $hartree_to_kcalmol * ( ( ( $freeEnergyX + 2*$G_Ethene - $freeEnergyD - 2*$G_Propene ) ) - ( $DG_referenceProductionBarrier + $magnitude4 ) ) / $kT ) )" | bc -l )

> <WEIGHT_DEFINITION_4>
w1=$( echo "1 / ( 1 + e( $hartree_to_kcalmol * ( ( ( $freeEnergyX + 2*$G_Ethene - $freeEnergyD - 2*$G_Propene ) ) - ( $DG_referenceProductionBarrier + $magnitude4 ) ) / $kT ) )" | bc -l )

> <CALCULATION_OF_OVERALL_FITNESS>
fitness=$( echo "( $desc1 + $desc2 + $desc3 ) * ( $w1 * $w2 * $w3 * $w4 )" | bc -l )

> <freeEnergyA>
-2563.16308911

> <freeEnergyF>
-2563.13918252

> <freeEnergyE>
-2563.16308911

> <freeEnergyC>
-2217.9005237

> <freeEnergyL>
-1085.30456582

> <freeEnergyX>
-2296.43254905

> <freeEnergyZ>
-2217.89029312

> <freeEnergyD>
-2217.92463025

> <G_Propene>
-117.738020895

> <G_Ethene>
-78.4716324751

> <G_HoveydaProd>
-502.204109499

> <G_SIMes>
-924.27249048

> <G_HG_RuCl2_SIMes>
-2402.13728523

> <DG_referenceProductionBarrier>
0.01468968

> <DG_referencePrecursorStabilityHII>
-0.0052201621

> <DG_referencePrecursorStabilityHI>
0.0117775312

> <DDG_referencePrecursorStability>
.0169976933

> <DG_referenceSynt>
0.0226072217

> <hartree_to_kcalmol>
627.49467516

> <boltzmann_constant>
0.0000000000000000000000138066

> <avogadro_number>
602214000000000000000000

> <jmol_to_kcalmol>
0.00023901

> <temp>
313.15

> <kT>
.6223089948281258706000000000

> <magnitude1>
1.43290809

> <magnitude2>
2.86581618

> <magnitude3>
4.29872427

> <magnitude4>
5.73163236

> <DFT_IDENTIFIER>
1723591278132

> <DFT_MACHINE>
158.39.114.73

> <XTB_IDENTIFIER>
NREC

> <XTB_MACHINE>
NREC

> <DESCRIPTOR_1>
.00000260398998733793

> <DESCRIPTOR_2>
5.948078625861339432

> <DESCRIPTOR_3>
0.0000000001

> <WEIGHT_1>
.99864432392216232698

> <WEIGHT_2>
.99999605492558066737

> <WEIGHT_3>
.99999999297964641167

> <WEIGHT_4>
.99999999660400499498

> <FITNESS>
5.93999406283447666988

$$$$
