
  CDK     08142422303D

 72 76  0  0  0  0  0  0  0  0999 V2000
    1.6800   -0.9870    0.7978 Ru  0  0  0  0  0  0  0  0  0  0  0  0
    3.4274   -0.9672   -0.1049 C   0  0  0  0  0  0  0  0  0  0  0  0
    3.4706   -1.5066   -1.0671 H   0  0  0  0  0  0  0  0  0  0  0  0
    3.7363   -1.9000    1.1423 C   0  0  0  0  0  0  0  0  0  0  0  0
    4.0517   -2.8750    0.7281 H   0  0  0  0  0  0  0  0  0  0  0  0
    2.5305   -2.1909    2.1101 C   0  0  0  0  0  0  0  0  0  0  0  0
    2.6412   -1.7475    3.1146 H   0  0  0  0  0  0  0  0  0  0  0  0
    2.1800   -3.2364    2.0763 H   0  0  0  0  0  0  0  0  0  0  0  0
    4.5098   -1.3812    1.7367 H   0  0  0  0  0  0  0  0  0  0  0  0
    3.9663   -0.0045   -0.0629 H   0  0  0  0  0  0  0  0  0  0  0  0
    1.1223   -2.9451   -0.4552 Cl  0  0  0  0  0  0  0  0  0  0  0  0
    2.4427    0.8513    2.1299 Cl  0  0  0  0  0  0  0  0  0  0  0  0
    0.8137    3.3235   -2.4704 C   0  0  0  0  0  0  0  0  0  0  0  0
    0.5547    2.6600   -1.2559 C   0  0  0  0  0  0  0  0  0  0  0  0
   -0.0541    1.3732   -1.3136 C   0  0  0  0  0  0  0  0  0  0  0  0
   -0.2637    0.7183   -2.5623 C   0  0  0  0  0  0  0  0  0  0  0  0
    0.0131    1.4390   -3.7402 C   0  0  0  0  0  0  0  0  0  0  0  0
    0.5130    2.7417   -3.7034 C   0  0  0  0  0  0  0  0  0  0  0  0
   -0.6018    0.7799   -0.1020 N   0  0  0  0  0  0  0  0  0  0  0  0
   -2.0231    1.1595    0.3291 C   0  0  0  0  0  0  0  0  0  0  0  0
   -2.0737    0.5065    1.7199 C   0  0  0  0  0  0  0  0  0  0  0  0
   -1.1131   -0.6979    1.6614 C   0  0  0  0  0  0  0  0  0  0  0  0
   -0.0741   -0.1907    0.6488 C   0  0  0  0  0  0  0  0  0  0  0  0
   -0.5397   -1.1196    3.0096 C   0  0  0  0  0  0  0  0  0  0  0  0
   -0.6417   -2.5105    3.2000 C   0  0  0  0  0  0  0  0  0  0  0  0
   -1.2543   -3.1860    2.0025 C   0  0  0  0  0  0  0  0  0  0  0  0
   -1.7822   -2.0231    1.1327 C   0  0  0  0  0  0  0  0  0  0  0  0
    0.0244   -0.2980    3.9957 C   0  0  0  0  0  0  0  0  0  0  0  0
    0.4981   -0.8844    5.1786 C   0  0  0  0  0  0  0  0  0  0  0  0
    0.4048   -2.2750    5.3702 C   0  0  0  0  0  0  0  0  0  0  0  0
   -0.1655   -3.0945    4.3832 C   0  0  0  0  0  0  0  0  0  0  0  0
   -3.0462    0.5796   -0.6525 C   0  0  0  0  0  0  0  0  0  0  0  0
   -2.2016    2.6723    0.4127 C   0  0  0  0  0  0  0  0  0  0  0  0
   -0.6497   -0.7487   -2.7185 C   0  0  0  0  0  0  0  0  0  0  0  0
   -1.9133   -0.9708   -3.5669 C   0  0  0  0  0  0  0  0  0  0  0  0
    1.0633    3.3164    0.0226 C   0  0  0  0  0  0  0  0  0  0  0  0
    2.6053    3.3367   -0.0204 C   0  0  0  0  0  0  0  0  0  0  0  0
    0.5334   -1.5014   -3.3600 C   0  0  0  0  0  0  0  0  0  0  0  0
    0.5483    4.7516    0.2293 C   0  0  0  0  0  0  0  0  0  0  0  0
   -3.0985    0.2051    2.0067 H   0  0  0  0  0  0  0  0  0  0  0  0
   -1.7031    1.2291    2.4733 H   0  0  0  0  0  0  0  0  0  0  0  0
   -1.5613   -2.2001    0.0636 H   0  0  0  0  0  0  0  0  0  0  0  0
   -2.8792   -1.9152    1.2473 H   0  0  0  0  0  0  0  0  0  0  0  0
   -0.4799   -3.7533    1.4441 H   0  0  0  0  0  0  0  0  0  0  0  0
   -2.0569   -3.8981    2.2814 H   0  0  0  0  0  0  0  0  0  0  0  0
   -0.2402   -4.1817    4.5356 H   0  0  0  0  0  0  0  0  0  0  0  0
    0.7799   -2.7232    6.3022 H   0  0  0  0  0  0  0  0  0  0  0  0
    0.9526   -0.2525    5.9547 H   0  0  0  0  0  0  0  0  0  0  0  0
    0.1309    0.7827    3.8340 H   0  0  0  0  0  0  0  0  0  0  0  0
   -2.9226    1.0370   -1.6526 H   0  0  0  0  0  0  0  0  0  0  0  0
   -4.0683    0.8158   -0.2961 H   0  0  0  0  0  0  0  0  0  0  0  0
   -2.9570   -0.5163   -0.7533 H   0  0  0  0  0  0  0  0  0  0  0  0
   -2.0642    3.1579   -0.5725 H   0  0  0  0  0  0  0  0  0  0  0  0
   -1.4991    3.1215    1.1367 H   0  0  0  0  0  0  0  0  0  0  0  0
   -3.2331    2.8855    0.7573 H   0  0  0  0  0  0  0  0  0  0  0  0
   -0.1592    0.9515   -4.7101 H   0  0  0  0  0  0  0  0  0  0  0  0
    1.2740    4.3210   -2.4395 H   0  0  0  0  0  0  0  0  0  0  0  0
    0.7036    3.2899   -4.6375 H   0  0  0  0  0  0  0  0  0  0  0  0
   -0.8054   -1.1862   -1.7136 H   0  0  0  0  0  0  0  0  0  0  0  0
    1.4643   -1.3475   -2.7845 H   0  0  0  0  0  0  0  0  0  0  0  0
    0.6978   -1.1599   -4.4031 H   0  0  0  0  0  0  0  0  0  0  0  0
    0.3319   -2.5900   -3.3736 H   0  0  0  0  0  0  0  0  0  0  0  0
   -1.7651   -0.6175   -4.6082 H   0  0  0  0  0  0  0  0  0  0  0  0
   -2.8016   -0.4511   -3.1619 H   0  0  0  0  0  0  0  0  0  0  0  0
   -2.1451   -2.0537   -3.6196 H   0  0  0  0  0  0  0  0  0  0  0  0
    0.7700    2.6869    0.8858 H   0  0  0  0  0  0  0  0  0  0  0  0
    0.9269    5.4328   -0.5604 H   0  0  0  0  0  0  0  0  0  0  0  0
    0.9135    5.1456    1.1992 H   0  0  0  0  0  0  0  0  0  0  0  0
   -0.5556    4.8214    0.2245 H   0  0  0  0  0  0  0  0  0  0  0  0
    3.0103    3.6997    0.9446 H   0  0  0  0  0  0  0  0  0  0  0  0
    2.9660    4.0075   -0.8279 H   0  0  0  0  0  0  0  0  0  0  0  0
    3.0136    2.3239   -0.1880 H   0  0  0  0  0  0  0  0  0  0  0  0
  2  4  1  0  0  0  0
  2  1  1  0  0  0  0
  2  3  1  0  0  0  0
  4  6  1  0  0  0  0
  4  5  1  0  0  0  0
  6  1  1  0  0  0  0
  6  8  1  0  0  0  0
  7  6  1  0  0  0  0
  9  4  1  0  0  0  0
 10  2  1  0  0  0  0
  1 11  1  0  0  0  0
  1 12  1  0  0  0  0
 13 14  2  0  0  0  0
 13 18  1  0  0  0  0
 13 57  1  0  0  0  0
 14 15  1  0  0  0  0
 14 36  1  0  0  0  0
 15 16  2  0  0  0  0
 15 19  1  0  0  0  0
 16 17  1  0  0  0  0
 16 34  1  0  0  0  0
 17 18  2  0  0  0  0
 17 56  1  0  0  0  0
 18 58  1  0  0  0  0
 19 20  1  0  0  0  0
 19 23  1  0  0  0  0
 20 21  1  0  0  0  0
 20 32  1  0  0  0  0
 20 33  1  0  0  0  0
 21 22  1  0  0  0  0
 21 40  1  0  0  0  0
 21 41  1  0  0  0  0
 22 23  1  0  0  0  0
 22 24  1  0  0  0  0
 22 27  1  0  0  0  0
 24 25  2  0  0  0  0
 24 28  1  0  0  0  0
 25 26  1  0  0  0  0
 25 31  1  0  0  0  0
 26 27  1  0  0  0  0
 26 44  1  0  0  0  0
 26 45  1  0  0  0  0
 27 42  1  0  0  0  0
 27 43  1  0  0  0  0
 28 29  2  0  0  0  0
 28 49  1  0  0  0  0
 29 30  1  0  0  0  0
 29 48  1  0  0  0  0
 30 31  2  0  0  0  0
 30 47  1  0  0  0  0
 31 46  1  0  0  0  0
 32 50  1  0  0  0  0
 32 51  1  0  0  0  0
 32 52  1  0  0  0  0
 33 53  1  0  0  0  0
 33 54  1  0  0  0  0
 33 55  1  0  0  0  0
 34 35  1  0  0  0  0
 34 38  1  0  0  0  0
 34 59  1  0  0  0  0
 35 63  1  0  0  0  0
 35 64  1  0  0  0  0
 35 65  1  0  0  0  0
 36 37  1  0  0  0  0
 36 39  1  0  0  0  0
 36 66  1  0  0  0  0
 37 70  1  0  0  0  0
 37 71  1  0  0  0  0
 37 72  1  0  0  0  0
 38 60  1  0  0  0  0
 38 61  1  0  0  0  0
 38 62  1  0  0  0  0
 39 67  1  0  0  0  0
 39 68  1  0  0  0  0
 39 69  1  0  0  0  0
  1 23  1  0  0  0  0
M  END
>  <DFT-ENERGY>
-2196.7071569

$$$$
