
  CDK     08132419443D

 72 77  0  0  0  0  0  0  0  0999 V2000
    0.9842    1.3505   -2.8286 H   0  0  0  0  0  0  0  0  0  0  0  0
    0.9638    2.5803   -2.8687 C   0  0  0  0  0  0  0  0  0  0  0  0
    0.7279    2.5489   -3.9524 H   0  0  0  0  0  0  0  0  0  0  0  0
    2.3277    2.8513   -2.3510 C   0  0  0  0  0  0  0  0  0  0  0  0
    2.5159    3.7859   -1.8028 H   0  0  0  0  0  0  0  0  0  0  0  0
    3.1652    2.4631   -2.9552 H   0  0  0  0  0  0  0  0  0  0  0  0
    1.4167    1.4296   -1.1101 Ru  0  0  0  0  0  0  0  0  0  0  0  0
   -0.0635    2.7646   -1.8097 C   0  0  0  0  0  0  0  0  0  0  0  0
   -0.0642    3.7072   -1.2442 H   0  0  0  0  0  0  0  0  0  0  0  0
   -1.0563    2.3232   -2.0065 H   0  0  0  0  0  0  0  0  0  0  0  0
    1.6641    3.1643    0.5488 Cl  0  0  0  0  0  0  0  0  0  0  0  0
    2.3301   -0.4469   -2.3060 Cl  0  0  0  0  0  0  0  0  0  0  0  0
   -2.7641    0.2368    1.6739 C   0  0  0  0  0  0  0  0  0  0  0  0
   -1.3686    0.4220    1.6778 C   0  0  0  0  0  0  0  0  0  0  0  0
   -0.5739   -0.4361    0.8617 C   0  0  0  0  0  0  0  0  0  0  0  0
   -1.1889   -1.3496   -0.0429 C   0  0  0  0  0  0  0  0  0  0  0  0
   -2.5902   -1.4809   -0.0033 C   0  0  0  0  0  0  0  0  0  0  0  0
   -3.3752   -0.7285    0.8722 C   0  0  0  0  0  0  0  0  0  0  0  0
    0.8714   -0.4738    1.0751 N   0  0  0  0  0  0  0  0  0  0  0  0
    1.4454   -1.5144    2.0493 C   0  0  0  0  0  0  0  0  0  0  0  0
    2.9541   -1.3425    1.7954 C   0  0  0  0  0  0  0  0  0  0  0  0
    3.1491    0.0731    1.1825 C   0  0  0  0  0  0  0  0  0  0  0  0
    1.7872    0.3402    0.5478 C   0  0  0  0  0  0  0  0  0  0  0  0
    3.6147    1.0737    2.2623 C   0  0  0  0  0  0  0  0  0  0  0  0
    5.0210    1.1824    2.2156 C   0  0  0  0  0  0  0  0  0  0  0  0
    5.5813    0.3720    1.0738 C   0  0  0  0  0  0  0  0  0  0  0  0
    4.3421    0.1461    0.1910 C   0  0  0  0  0  0  0  0  0  0  0  0
    2.8980    1.7558    3.2533 C   0  0  0  0  0  0  0  0  0  0  0  0
    3.5887    2.5346    4.1958 C   0  0  0  0  0  0  0  0  0  0  0  0
    4.9885    2.6347    4.1528 C   0  0  0  0  0  0  0  0  0  0  0  0
    5.7104    1.9566    3.1581 C   0  0  0  0  0  0  0  0  0  0  0  0
    0.9832   -2.9247    1.6871 C   0  0  0  0  0  0  0  0  0  0  0  0
    1.0195   -1.2018    3.4854 C   0  0  0  0  0  0  0  0  0  0  0  0
   -0.4517   -2.0840   -1.1552 C   0  0  0  0  0  0  0  0  0  0  0  0
   -0.7481   -3.5912   -1.2188 C   0  0  0  0  0  0  0  0  0  0  0  0
   -0.8262    1.6089    2.4613 C   0  0  0  0  0  0  0  0  0  0  0  0
   -1.4054    2.9091    1.8693 C   0  0  0  0  0  0  0  0  0  0  0  0
   -0.8386   -1.4289   -2.4975 C   0  0  0  0  0  0  0  0  0  0  0  0
   -1.1220    1.5512    3.9686 C   0  0  0  0  0  0  0  0  0  0  0  0
    3.2839   -2.0956    1.0525 H   0  0  0  0  0  0  0  0  0  0  0  0
    3.5403   -1.4849    2.7216 H   0  0  0  0  0  0  0  0  0  0  0  0
    4.1830    1.0299   -0.4595 H   0  0  0  0  0  0  0  0  0  0  0  0
    4.3933   -0.7411   -0.4636 H   0  0  0  0  0  0  0  0  0  0  0  0
    6.4036    0.8840    0.5365 H   0  0  0  0  0  0  0  0  0  0  0  0
    5.9928   -0.5923    1.4485 H   0  0  0  0  0  0  0  0  0  0  0  0
    6.8067    2.0394    3.1095 H   0  0  0  0  0  0  0  0  0  0  0  0
    5.5180    3.2548    4.8906 H   0  0  0  0  0  0  0  0  0  0  0  0
    3.0216    3.0832    4.9616 H   0  0  0  0  0  0  0  0  0  0  0  0
    1.8032    1.7254    3.2834 H   0  0  0  0  0  0  0  0  0  0  0  0
   -0.1128   -3.0397    1.7905 H   0  0  0  0  0  0  0  0  0  0  0  0
    1.4678   -3.6369    2.3845 H   0  0  0  0  0  0  0  0  0  0  0  0
    1.2816   -3.1973    0.6593 H   0  0  0  0  0  0  0  0  0  0  0  0
   -0.0829   -1.2338    3.5810 H   0  0  0  0  0  0  0  0  0  0  0  0
    1.3863   -0.2183    3.8252 H   0  0  0  0  0  0  0  0  0  0  0  0
    1.4400   -1.9736    4.1598 H   0  0  0  0  0  0  0  0  0  0  0  0
   -3.0722   -2.1896   -0.6913 H   0  0  0  0  0  0  0  0  0  0  0  0
   -3.3820    0.8841    2.3123 H   0  0  0  0  0  0  0  0  0  0  0  0
   -4.4657   -0.8674    0.9013 H   0  0  0  0  0  0  0  0  0  0  0  0
    0.6366   -1.9313   -1.0253 H   0  0  0  0  0  0  0  0  0  0  0  0
   -0.6776   -0.3335   -2.4584 H   0  0  0  0  0  0  0  0  0  0  0  0
   -1.9065   -1.6156   -2.7348 H   0  0  0  0  0  0  0  0  0  0  0  0
   -0.2143   -1.8321   -3.3186 H   0  0  0  0  0  0  0  0  0  0  0  0
   -1.8100   -3.7882   -1.4725 H   0  0  0  0  0  0  0  0  0  0  0  0
   -0.5320   -4.1107   -0.2661 H   0  0  0  0  0  0  0  0  0  0  0  0
   -0.1327   -4.0606   -2.0126 H   0  0  0  0  0  0  0  0  0  0  0  0
    0.2656    1.6562    2.2992 H   0  0  0  0  0  0  0  0  0  0  0  0
   -2.2138    1.5674    4.1654 H   0  0  0  0  0  0  0  0  0  0  0  0
   -0.6859    2.4381    4.4721 H   0  0  0  0  0  0  0  0  0  0  0  0
   -0.7082    0.6474    4.4529 H   0  0  0  0  0  0  0  0  0  0  0  0
   -0.9058    3.7878    2.3225 H   0  0  0  0  0  0  0  0  0  0  0  0
   -2.4951    2.9867    2.0655 H   0  0  0  0  0  0  0  0  0  0  0  0
   -1.2362    2.9563    0.7783 H   0  0  0  0  0  0  0  0  0  0  0  0
  1  2  1  0  0  0  0
  1  7  1  0  0  0  0
  2  3  1  0  0  0  0
  2  4  1  0  0  0  0
  4  5  1  0  0  0  0
  4  6  1  0  0  0  0
  7  8  1  0  0  0  0
  4  7  1  0  0  0  0
  2  8  1  0  0  0  0
  8  9  1  0  0  0  0
  8 10  1  0  0  0  0
  7 11  1  0  0  0  0
  7 12  1  0  0  0  0
 13 14  2  0  0  0  0
 13 18  1  0  0  0  0
 13 57  1  0  0  0  0
 14 15  1  0  0  0  0
 14 36  1  0  0  0  0
 15 16  2  0  0  0  0
 15 19  1  0  0  0  0
 16 17  1  0  0  0  0
 16 34  1  0  0  0  0
 17 18  2  0  0  0  0
 17 56  1  0  0  0  0
 18 58  1  0  0  0  0
 19 20  1  0  0  0  0
 19 23  1  0  0  0  0
 20 21  1  0  0  0  0
 20 32  1  0  0  0  0
 20 33  1  0  0  0  0
 21 22  1  0  0  0  0
 21 40  1  0  0  0  0
 21 41  1  0  0  0  0
 22 23  1  0  0  0  0
 22 24  1  0  0  0  0
 22 27  1  0  0  0  0
 24 25  2  0  0  0  0
 24 28  1  0  0  0  0
 25 26  1  0  0  0  0
 25 31  1  0  0  0  0
 26 27  1  0  0  0  0
 26 44  1  0  0  0  0
 26 45  1  0  0  0  0
 27 42  1  0  0  0  0
 27 43  1  0  0  0  0
 28 29  2  0  0  0  0
 28 49  1  0  0  0  0
 29 30  1  0  0  0  0
 29 48  1  0  0  0  0
 30 31  2  0  0  0  0
 30 47  1  0  0  0  0
 31 46  1  0  0  0  0
 32 50  1  0  0  0  0
 32 51  1  0  0  0  0
 32 52  1  0  0  0  0
 33 53  1  0  0  0  0
 33 54  1  0  0  0  0
 33 55  1  0  0  0  0
 34 35  1  0  0  0  0
 34 38  1  0  0  0  0
 34 59  1  0  0  0  0
 35 63  1  0  0  0  0
 35 64  1  0  0  0  0
 35 65  1  0  0  0  0
 36 37  1  0  0  0  0
 36 39  1  0  0  0  0
 36 66  1  0  0  0  0
 37 70  1  0  0  0  0
 37 71  1  0  0  0  0
 37 72  1  0  0  0  0
 38 60  1  0  0  0  0
 38 61  1  0  0  0  0
 38 62  1  0  0  0  0
 39 67  1  0  0  0  0
 39 68  1  0  0  0  0
 39 69  1  0  0  0  0
  7 23  1  0  0  0  0
M  END
>  <DFT-ENERGY>
-2196.65149911

$$$$
