
  CDK     08132412233D

 78 82  0  0  0  0  0  0  0  0999 V2000
   -0.3976   -3.1142   -3.4320 C   0  0  0  0  0  0  0  0  0  0  0  0
    0.6593   -3.3868   -3.2673 H   0  0  0  0  0  0  0  0  0  0  0  0
   -0.7604   -3.5885   -4.3716 H   0  0  0  0  0  0  0  0  0  0  0  0
   -1.0007   -3.5380   -2.6080 H   0  0  0  0  0  0  0  0  0  0  0  0
   -0.5887   -1.6239   -3.5550 C   0  0  0  0  0  0  0  0  0  0  0  0
   -1.6271   -1.2877   -3.7321 H   0  0  0  0  0  0  0  0  0  0  0  0
    0.4110   -0.7483   -4.0511 C   0  0  0  0  0  0  0  0  0  0  0  0
    1.4338   -1.1604   -4.1113 H   0  0  0  0  0  0  0  0  0  0  0  0
    0.0473    0.3843   -4.9823 C   0  0  0  0  0  0  0  0  0  0  0  0
    0.8653    1.1186   -5.1059 H   0  0  0  0  0  0  0  0  0  0  0  0
   -0.1716   -0.0452   -5.9839 H   0  0  0  0  0  0  0  0  0  0  0  0
   -0.8644    0.9035   -4.6263 H   0  0  0  0  0  0  0  0  0  0  0  0
    1.0591    0.6841   -2.3441 C   0  0  0  0  0  0  0  0  0  0  0  0
    0.6733    1.6412   -2.7540 H   0  0  0  0  0  0  0  0  0  0  0  0
    2.1613    0.5410   -2.3497 H   0  0  0  0  0  0  0  0  0  0  0  0
   -0.0590   -0.5931   -1.6526 Ru  0  0  0  0  0  0  0  0  0  0  0  0
   -2.0016    0.7379   -2.1369 Cl  0  0  0  0  0  0  0  0  0  0  0  0
    1.8342   -2.0365   -1.3257 Cl  0  0  0  0  0  0  0  0  0  0  0  0
    3.3769    2.4441    1.2528 C   0  0  0  0  0  0  0  0  0  0  0  0
    2.5960    1.2732    1.1993 C   0  0  0  0  0  0  0  0  0  0  0  0
    1.1831    1.4137    1.0644 C   0  0  0  0  0  0  0  0  0  0  0  0
    0.5946    2.7000    0.8748 C   0  0  0  0  0  0  0  0  0  0  0  0
    1.4331    3.8296    0.9422 C   0  0  0  0  0  0  0  0  0  0  0  0
    2.8071    3.7142    1.1565 C   0  0  0  0  0  0  0  0  0  0  0  0
    0.3194    0.2551    1.2352 N   0  0  0  0  0  0  0  0  0  0  0  0
   -0.1234   -0.1437    2.6454 C   0  0  0  0  0  0  0  0  0  0  0  0
   -0.7831   -1.4992    2.3547 C   0  0  0  0  0  0  0  0  0  0  0  0
   -1.3063   -1.4099    0.9085 C   0  0  0  0  0  0  0  0  0  0  0  0
   -0.2809   -0.4586    0.2696 C   0  0  0  0  0  0  0  0  0  0  0  0
   -1.4517   -2.7659    0.2259 C   0  0  0  0  0  0  0  0  0  0  0  0
   -2.7266   -2.9193   -0.3536 C   0  0  0  0  0  0  0  0  0  0  0  0
   -3.5402   -1.6592   -0.2236 C   0  0  0  0  0  0  0  0  0  0  0  0
   -2.7576   -0.8036    0.7977 C   0  0  0  0  0  0  0  0  0  0  0  0
   -0.5259   -3.8208    0.2105 C   0  0  0  0  0  0  0  0  0  0  0  0
   -0.8969   -5.0438   -0.3681 C   0  0  0  0  0  0  0  0  0  0  0  0
   -2.1750   -5.2053   -0.9339 C   0  0  0  0  0  0  0  0  0  0  0  0
   -3.0914   -4.1412   -0.9404 C   0  0  0  0  0  0  0  0  0  0  0  0
   -1.0974    0.8921    3.2164 C   0  0  0  0  0  0  0  0  0  0  0  0
    1.0575   -0.2927    3.5995 C   0  0  0  0  0  0  0  0  0  0  0  0
   -0.8679    2.9517    0.5167 C   0  0  0  0  0  0  0  0  0  0  0  0
   -1.6005    3.8447    1.5352 C   0  0  0  0  0  0  0  0  0  0  0  0
    3.3482   -0.0551    1.2039 C   0  0  0  0  0  0  0  0  0  0  0  0
    4.2395   -0.1479   -0.0505 C   0  0  0  0  0  0  0  0  0  0  0  0
   -0.9537    3.6210   -0.8689 C   0  0  0  0  0  0  0  0  0  0  0  0
    4.2407   -0.2427    2.4459 C   0  0  0  0  0  0  0  0  0  0  0  0
   -1.5863   -1.7416    3.0758 H   0  0  0  0  0  0  0  0  0  0  0  0
   -0.0151   -2.2954    2.4149 H   0  0  0  0  0  0  0  0  0  0  0  0
   -2.7395    0.2582    0.4889 H   0  0  0  0  0  0  0  0  0  0  0  0
   -3.2283   -0.8677    1.7988 H   0  0  0  0  0  0  0  0  0  0  0  0
   -3.5885   -1.1300   -1.1989 H   0  0  0  0  0  0  0  0  0  0  0  0
   -4.5808   -1.8579    0.1025 H   0  0  0  0  0  0  0  0  0  0  0  0
   -4.0892   -4.2673   -1.3866 H   0  0  0  0  0  0  0  0  0  0  0  0
   -2.4558   -6.1705   -1.3806 H   0  0  0  0  0  0  0  0  0  0  0  0
   -0.1803   -5.8772   -0.3852 H   0  0  0  0  0  0  0  0  0  0  0  0
    0.4815   -3.6877    0.6269 H   0  0  0  0  0  0  0  0  0  0  0  0
   -0.5816    1.8587    3.3697 H   0  0  0  0  0  0  0  0  0  0  0  0
   -1.4630    0.5445    4.2029 H   0  0  0  0  0  0  0  0  0  0  0  0
   -1.9696    1.0582    2.5604 H   0  0  0  0  0  0  0  0  0  0  0  0
    1.5999    0.6629    3.7327 H   0  0  0  0  0  0  0  0  0  0  0  0
    1.7654   -1.0641    3.2492 H   0  0  0  0  0  0  0  0  0  0  0  0
    0.6715   -0.6060    4.5900 H   0  0  0  0  0  0  0  0  0  0  0  0
    0.9875    4.8259    0.8123 H   0  0  0  0  0  0  0  0  0  0  0  0
    4.4658    2.3469    1.3666 H   0  0  0  0  0  0  0  0  0  0  0  0
    3.4376    4.6131    1.2200 H   0  0  0  0  0  0  0  0  0  0  0  0
   -1.3868    1.9772    0.4403 H   0  0  0  0  0  0  0  0  0  0  0  0
   -0.4227    3.0310   -1.6358 H   0  0  0  0  0  0  0  0  0  0  0  0
   -0.5234    4.6436   -0.8425 H   0  0  0  0  0  0  0  0  0  0  0  0
   -2.0108    3.6961   -1.1899 H   0  0  0  0  0  0  0  0  0  0  0  0
   -1.1555    4.8606    1.5644 H   0  0  0  0  0  0  0  0  0  0  0  0
   -1.5771    3.4425    2.5643 H   0  0  0  0  0  0  0  0  0  0  0  0
   -2.6624    3.9616    1.2377 H   0  0  0  0  0  0  0  0  0  0  0  0
    2.6094   -0.8780    1.1408 H   0  0  0  0  0  0  0  0  0  0  0  0
    5.0731    0.4910    2.4515 H   0  0  0  0  0  0  0  0  0  0  0  0
    4.6991   -1.2523    2.4311 H   0  0  0  0  0  0  0  0  0  0  0  0
    3.6942   -0.1274    3.3997 H   0  0  0  0  0  0  0  0  0  0  0  0
    4.7188   -1.1457   -0.1022 H   0  0  0  0  0  0  0  0  0  0  0  0
    5.0402    0.6202   -0.0249 H   0  0  0  0  0  0  0  0  0  0  0  0
    3.6496   -0.0249   -0.9752 H   0  0  0  0  0  0  0  0  0  0  0  0
  1  2  1  0  0  0  0
  1  5  1  0  0  0  0
  3  1  1  0  0  0  0
  4  1  1  0  0  0  0
  5  6  1  0  0  0  0
  5 16  1  0  0  0  0
  5  7  1  0  0  0  0
  7  9  1  0  0  0  0
  7  8  1  0  0  0  0
  9 10  1  0  0  0  0
 11  9  1  0  0  0  0
 12  9  1  0  0  0  0
 13 14  1  0  0  0  0
 13 15  1  0  0  0  0
 13  7  1  0  0  0  0
 16 13  1  0  0  0  0
 16 17  1  0  0  0  0
 16 18  1  0  0  0  0
 19 20  2  0  0  0  0
 19 24  1  0  0  0  0
 19 63  1  0  0  0  0
 20 21  1  0  0  0  0
 20 42  1  0  0  0  0
 21 22  2  0  0  0  0
 21 25  1  0  0  0  0
 22 23  1  0  0  0  0
 22 40  1  0  0  0  0
 23 24  2  0  0  0  0
 23 62  1  0  0  0  0
 24 64  1  0  0  0  0
 25 26  1  0  0  0  0
 25 29  1  0  0  0  0
 26 27  1  0  0  0  0
 26 38  1  0  0  0  0
 26 39  1  0  0  0  0
 27 28  1  0  0  0  0
 27 46  1  0  0  0  0
 27 47  1  0  0  0  0
 28 29  1  0  0  0  0
 28 30  1  0  0  0  0
 28 33  1  0  0  0  0
 30 31  2  0  0  0  0
 30 34  1  0  0  0  0
 31 32  1  0  0  0  0
 31 37  1  0  0  0  0
 32 33  1  0  0  0  0
 32 50  1  0  0  0  0
 32 51  1  0  0  0  0
 33 48  1  0  0  0  0
 33 49  1  0  0  0  0
 34 35  2  0  0  0  0
 34 55  1  0  0  0  0
 35 36  1  0  0  0  0
 35 54  1  0  0  0  0
 36 37  2  0  0  0  0
 36 53  1  0  0  0  0
 37 52  1  0  0  0  0
 38 56  1  0  0  0  0
 38 57  1  0  0  0  0
 38 58  1  0  0  0  0
 39 59  1  0  0  0  0
 39 60  1  0  0  0  0
 39 61  1  0  0  0  0
 40 41  1  0  0  0  0
 40 44  1  0  0  0  0
 40 65  1  0  0  0  0
 41 69  1  0  0  0  0
 41 70  1  0  0  0  0
 41 71  1  0  0  0  0
 42 43  1  0  0  0  0
 42 45  1  0  0  0  0
 42 72  1  0  0  0  0
 43 76  1  0  0  0  0
 43 77  1  0  0  0  0
 43 78  1  0  0  0  0
 44 66  1  0  0  0  0
 44 67  1  0  0  0  0
 44 68  1  0  0  0  0
 45 73  1  0  0  0  0
 45 74  1  0  0  0  0
 45 75  1  0  0  0  0
 16 29  1  0  0  0  0
M  END
>  <DFT-ENERGY>
-2275.214167

$$$$
