IPrP-1_A2
  CDK     08122418353D

 57 58  0  0  0  0  0  0  0  0999 V2000
   -0.7060   -0.3888    0.1886 Ru  0  0  0  0  0  0  0  0  0  0  0  0
   -2.4804   -0.4983   -1.2006 O   0  0  0  0  0  0  0  0  0  0  0  0
   -1.8564   -1.3949    1.1927 C   0  0  0  0  0  0  0  0  0  0  0  0
   -1.6060   -1.6729    2.2154 H   0  0  0  0  0  0  0  0  0  0  0  0
   -2.7632    0.2609   -2.4264 C   0  0  0  0  0  0  0  0  0  0  0  0
   -3.1321   -0.4579   -3.1885 H   0  0  0  0  0  0  0  0  0  0  0  0
   -1.3714    0.7875   -2.7523 C   0  0  0  0  0  0  0  0  0  0  0  0
   -1.0299    1.5084   -1.9847 H   0  0  0  0  0  0  0  0  0  0  0  0
   -0.6390   -0.0438   -2.7696 H   0  0  0  0  0  0  0  0  0  0  0  0
   -1.3430    1.2891   -3.7233 H   0  0  0  0  0  0  0  0  0  0  0  0
   -3.7678    1.3512   -2.0965 C   0  0  0  0  0  0  0  0  0  0  0  0
   -3.8157    2.1138   -2.8800 H   0  0  0  0  0  0  0  0  0  0  0  0
   -4.7780    0.9596   -1.9377 H   0  0  0  0  0  0  0  0  0  0  0  0
   -3.4754    1.8619   -1.1583 H   0  0  0  0  0  0  0  0  0  0  0  0
   -3.4216   -1.3563   -0.6956 C   0  0  0  0  0  0  0  0  0  0  0  0
   -4.5670   -1.7764   -1.3486 C   0  0  0  0  0  0  0  0  0  0  0  0
   -4.8065   -1.4399   -2.3547 H   0  0  0  0  0  0  0  0  0  0  0  0
   -5.4153   -2.6614   -0.6911 C   0  0  0  0  0  0  0  0  0  0  0  0
   -6.3186   -3.0055   -1.1998 H   0  0  0  0  0  0  0  0  0  0  0  0
   -5.1367   -3.1168    0.5942 C   0  0  0  0  0  0  0  0  0  0  0  0
   -5.8205   -3.8049    1.0884 H   0  0  0  0  0  0  0  0  0  0  0  0
   -3.9914   -2.6851    1.2358 C   0  0  0  0  0  0  0  0  0  0  0  0
   -3.7767   -3.0271    2.2471 H   0  0  0  0  0  0  0  0  0  0  0  0
   -3.1079   -1.8135    0.5964 C   0  0  0  0  0  0  0  0  0  0  0  0
   -1.4307    1.7361    0.7421 Cl  0  0  0  0  0  0  0  0  0  0  0  0
    0.2141   -2.0291   -1.1610 Cl  0  0  0  0  0  0  0  0  0  0  0  0
    0.9806   -0.3623    1.6222 P   0  0  0  0  0  0  0  0  0  0  0  0
    1.3843   -1.9793    2.5893 C   0  0  0  0  0  0  0  0  0  0  0  0
    0.6372   -2.0270    3.4259 H   0  0  0  0  0  0  0  0  0  0  0  0
    1.1623   -3.1727    1.6695 C   0  0  0  0  0  0  0  0  0  0  0  0
    0.1360   -3.2266    1.2636 H   0  0  0  0  0  0  0  0  0  0  0  0
    1.8357   -3.1870    0.7984 H   0  0  0  0  0  0  0  0  0  0  0  0
    3.3799   -0.8827    0.1111 C   0  0  0  0  0  0  0  0  0  0  0  0
    3.8238   -1.5033    0.9067 H   0  0  0  0  0  0  0  0  0  0  0  0
    2.8140   -1.5528   -0.5596 H   0  0  0  0  0  0  0  0  0  0  0  0
    0.8013    0.9795    2.9999 C   0  0  0  0  0  0  0  0  0  0  0  0
    0.5697    1.9429    2.4641 H   0  0  0  0  0  0  0  0  0  0  0  0
    2.5309    0.2563    0.6553 C   0  0  0  0  0  0  0  0  0  0  0  0
    1.9749    1.1212   -0.4769 C   0  0  0  0  0  0  0  0  0  0  0  0
    2.7814   -1.9934    3.1965 C   0  0  0  0  0  0  0  0  0  0  0  0
    2.9527   -2.9374    3.7336 H   0  0  0  0  0  0  0  0  0  0  0  0
    3.5787   -1.9247    2.4361 H   0  0  0  0  0  0  0  0  0  0  0  0
    2.0720    1.1809    3.8139 C   0  0  0  0  0  0  0  0  0  0  0  0
    2.9178    1.5235    3.2023 H   0  0  0  0  0  0  0  0  0  0  0  0
    1.9113    1.9542    4.5797 H   0  0  0  0  0  0  0  0  0  0  0  0
   -0.3957    0.6228    3.8726 C   0  0  0  0  0  0  0  0  0  0  0  0
   -0.5845    1.4228    4.6046 H   0  0  0  0  0  0  0  0  0  0  0  0
   -0.2631   -0.2980    4.4514 H   0  0  0  0  0  0  0  0  0  0  0  0
   -1.3279    0.5447    3.2828 H   0  0  0  0  0  0  0  0  0  0  0  0
    1.3309   -4.1168    2.2043 H   0  0  0  0  0  0  0  0  0  0  0  0
    2.3909    0.2738    4.3536 H   0  0  0  0  0  0  0  0  0  0  0  0
    3.1501    0.8833    1.3428 H   0  0  0  0  0  0  0  0  0  0  0  0
    2.9374   -1.1834    3.9274 H   0  0  0  0  0  0  0  0  0  0  0  0
    1.5189    0.5157   -1.2880 H   0  0  0  0  0  0  0  0  0  0  0  0
    2.7849    1.6850   -0.9625 H   0  0  0  0  0  0  0  0  0  0  0  0
    1.2362    1.8757   -0.1515 H   0  0  0  0  0  0  0  0  0  0  0  0
    4.2127   -0.4894   -0.4880 H   0  0  0  0  0  0  0  0  0  0  0  0
  1  2  1  0  0  0  0
  1  3  2  0  0  0  0
  3  4  1  0  0  0  0
  2  5  1  0  0  0  0
  5  6  1  0  0  0  0
  5  7  1  0  0  0  0
  7  8  1  0  0  0  0
  7  9  1  0  0  0  0
  7 10  1  0  0  0  0
  5 11  1  0  0  0  0
 11 12  1  0  0  0  0
 11 13  1  0  0  0  0
 11 14  1  0  0  0  0
  2 15  1  0  0  0  0
 15 24  1  0  0  0  0
 15 16  2  0  0  0  0
 16 17  1  0  0  0  0
 16 18  1  0  0  0  0
 18 19  1  0  0  0  0
 18 20  2  0  0  0  0
 20 21  1  0  0  0  0
 20 22  1  0  0  0  0
 22 24  2  0  0  0  0
 22 23  1  0  0  0  0
  3 24  1  0  0  0  0
  1 25  1  0  0  0  0
  1 26  1  0  0  0  0
 27 28  1  0  0  0  0
 27 36  1  0  0  0  0
 27 38  1  0  0  0  0
 28 29  1  0  0  0  0
 28 30  1  0  0  0  0
 28 40  1  0  0  0  0
 30 31  1  0  0  0  0
 30 32  1  0  0  0  0
 33 34  1  0  0  0  0
 33 35  1  0  0  0  0
 33 38  1  0  0  0  0
 36 37  1  0  0  0  0
 36 43  1  0  0  0  0
 36 46  1  0  0  0  0
 38 39  1  0  0  0  0
 40 41  1  0  0  0  0
 40 42  1  0  0  0  0
 43 44  1  0  0  0  0
 43 45  1  0  0  0  0
 46 47  1  0  0  0  0
 46 48  1  0  0  0  0
 46 49  1  0  0  0  0
 30 50  1  0  0  0  0
 43 51  1  0  0  0  0
 38 52  1  0  0  0  0
 40 53  1  0  0  0  0
 39 54  1  0  0  0  0
 39 55  1  0  0  0  0
 39 56  1  0  0  0  0
 33 57  1  0  0  0  0
  1 27  1  0  0  0  0
M  END
> <FrozenCore-PM6_ENERGY>
166.312

> <RMSD_CONF_CG-CS>
2.517484

> <RMSD_CONF_GO-CS>
0.000000

> <UID>


> <DESCRIPTOR_DEFINITION_1>
desc1=( echo "1 * ( e( $hartree_to_kcalmol * ( ( $freeEnergyZ - $freeEnergyD ) - ( $freeEnergyX + 2*$G_Ethene - $freeEnergyD - 2*$G_Propene ) - $DDG_reference_HGII ) / $kT ) ) " | bc -l )

> <DESCRIPTOR_DEFINITION_2>
desc1=( echo "1 * ( e( $hartree_to_kcalmol * ( ( $freeEnergyZ - $freeEnergyD ) - ( $freeEnergyX + 2*$G_Ethene - $freeEnergyD - 2*$G_Propene ) - $DDG_reference_HGII ) / $kT ) ) " | bc -l )

> <DESCRIPTOR_DEFINITION_3>
desc1=( echo "1 * ( e( $hartree_to_kcalmol * ( ( $freeEnergyZ - $freeEnergyD ) - ( $freeEnergyX + 2*$G_Ethene - $freeEnergyD - 2*$G_Propene ) - $DDG_reference_HGII ) / $kT ) ) " | bc -l )

> <WEIGHT_DEFINITION_1>
w1=$( echo "1 / ( 1 + e( $hartree_to_kcalmol * ( ( ( $freeEnergyX + 2*$G_Ethene - $freeEnergyD - 2*$G_Propene ) ) - ( $DG_referenceProductionBarrier + $magnitude4 ) ) / $kT ) )" | bc -l )

> <WEIGHT_DEFINITION_2>
w1=$( echo "1 / ( 1 + e( $hartree_to_kcalmol * ( ( ( $freeEnergyX + 2*$G_Ethene - $freeEnergyD - 2*$G_Propene ) ) - ( $DG_referenceProductionBarrier + $magnitude4 ) ) / $kT ) )" | bc -l )

> <WEIGHT_DEFINITION_3>
w1=$( echo "1 / ( 1 + e( $hartree_to_kcalmol * ( ( ( $freeEnergyX + 2*$G_Ethene - $freeEnergyD - 2*$G_Propene ) ) - ( $DG_referenceProductionBarrier + $magnitude4 ) ) / $kT ) )" | bc -l )

> <WEIGHT_DEFINITION_4>
w1=$( echo "1 / ( 1 + e( $hartree_to_kcalmol * ( ( ( $freeEnergyX + 2*$G_Ethene - $freeEnergyD - 2*$G_Propene ) ) - ( $DG_referenceProductionBarrier + $magnitude4 ) ) / $kT ) )" | bc -l )

> <CALCULATION_OF_OVERALL_FITNESS>
fitness=$( echo "( $desc1 + $desc2 + $desc3 ) * ( $w1 * $w2 * $w3 * $w4 )" | bc -l )

> <freeEnergyA>
-2174.1586238

> <freeEnergyF>
-2174.13073446

> <freeEnergyE>
-2174.1586238

> <freeEnergyC>
-1828.8940035

> <freeEnergyL>
-696.32034819

> <freeEnergyX>
-1907.42104304

> <freeEnergyZ>
-1828.87332872

> <freeEnergyD>
-1828.910535

> <G_Propene>
-117.738020895

> <G_Ethene>
-78.4716324751

> <G_HoveydaProd>
-502.204109499

> <G_SIMes>
-924.27249048

> <G_HG_RuCl2_SIMes>
-2402.13728523

> <DG_referenceProductionBarrier>
0.01468968

> <DG_referencePrecursorStabilityHII>
-0.0052201621

> <DG_referencePrecursorStabilityHI>
0.0117775312

> <DDG_referencePrecursorStability>
.0169976933

> <DG_referenceSynt>
0.0226072217

> <hartree_to_kcalmol>
627.49467516

> <boltzmann_constant>
0.0000000000000000000000138066

> <avogadro_number>
602214000000000000000000

> <jmol_to_kcalmol>
0.00023901

> <temp>
313.15

> <kT>
.6223089948281258706000000000

> <magnitude1>
1.43290809

> <magnitude2>
2.86581618

> <magnitude3>
4.29872427

> <magnitude4>
5.73163236

> <DFT_IDENTIFIER>
1723556347426

> <DFT_MACHINE>
158.39.114.73

> <XTB_IDENTIFIER>
1723555994768

> <XTB_MACHINE>
158.39.114.73

> <DESCRIPTOR_1>
.00063964891984632365

> <DESCRIPTOR_2>
9.373189285807931832

> <DESCRIPTOR_3>
.001647173522295000

> <WEIGHT_1>
.99990026702488460775

> <WEIGHT_2>
.99996867383260252109

> <WEIGHT_3>
.16219976376057302062

> <WEIGHT_4>
.99999999993878367174

> <FITNESS>
1.52050071291971183064

$$$$
