
  CDK     08132414563D

 43 43  0  0  0  0  0  0  0  0999 V2000
    1.6312    1.0782   -0.0971 Ru  0  0  0  0  0  0  0  0  0  0  0  0
    2.9092    1.5722   -1.4939 C   0  0  0  0  0  0  0  0  0  0  0  0
    2.5581    2.3321   -2.2158 H   0  0  0  0  0  0  0  0  0  0  0  0
    3.5560    2.2049   -0.1992 C   0  0  0  0  0  0  0  0  0  0  0  0
    3.5871    3.2968   -0.3705 H   0  0  0  0  0  0  0  0  0  0  0  0
    2.7974    1.9969    1.1746 C   0  0  0  0  0  0  0  0  0  0  0  0
    3.3567    1.3494    1.8749 H   0  0  0  0  0  0  0  0  0  0  0  0
    2.4016    2.9406    1.5926 H   0  0  0  0  0  0  0  0  0  0  0  0
    4.5417    1.7191   -0.0795 H   0  0  0  0  0  0  0  0  0  0  0  0
    3.5088    0.7420   -1.9100 H   0  0  0  0  0  0  0  0  0  0  0  0
    0.4997    3.1418   -0.4769 Cl  0  0  0  0  0  0  0  0  0  0  0  0
    2.8702   -0.9431    0.2742 Cl  0  0  0  0  0  0  0  0  0  0  0  0
   -0.3401   -0.2241    0.0324 P   0  0  0  0  0  0  0  0  0  0  0  0
   -2.0352    0.5826   -0.0409 C   0  0  0  0  0  0  0  0  0  0  0  0
   -2.7306   -0.2788    0.0840 H   0  0  0  0  0  0  0  0  0  0  0  0
   -2.2448    1.5755    1.1083 C   0  0  0  0  0  0  0  0  0  0  0  0
   -2.1957    1.0885    2.1009 H   0  0  0  0  0  0  0  0  0  0  0  0
   -1.4875    2.3833    1.0651 H   0  0  0  0  0  0  0  0  0  0  0  0
    0.3643   -0.7859   -2.6150 C   0  0  0  0  0  0  0  0  0  0  0  0
    0.0306    0.2499   -2.8216 H   0  0  0  0  0  0  0  0  0  0  0  0
    1.4534   -0.7650   -2.4102 H   0  0  0  0  0  0  0  0  0  0  0  0
   -0.2808   -1.2291    1.6152 C   0  0  0  0  0  0  0  0  0  0  0  0
    0.5051   -1.9723    1.3671 H   0  0  0  0  0  0  0  0  0  0  0  0
   -0.3744   -1.4227   -1.4260 C   0  0  0  0  0  0  0  0  0  0  0  0
    0.1892   -2.8105   -1.1111 C   0  0  0  0  0  0  0  0  0  0  0  0
   -2.2955    1.2342   -1.4052 C   0  0  0  0  0  0  0  0  0  0  0  0
   -3.3148    1.6730   -1.4077 H   0  0  0  0  0  0  0  0  0  0  0  0
   -1.5679    2.0484   -1.5919 H   0  0  0  0  0  0  0  0  0  0  0  0
   -1.5984   -1.9400    1.9369 C   0  0  0  0  0  0  0  0  0  0  0  0
   -1.9817   -2.5349    1.0838 H   0  0  0  0  0  0  0  0  0  0  0  0
   -1.4442   -2.6368    2.7867 H   0  0  0  0  0  0  0  0  0  0  0  0
    0.2470   -0.3924    2.7889 C   0  0  0  0  0  0  0  0  0  0  0  0
    0.3463   -1.0376    3.6861 H   0  0  0  0  0  0  0  0  0  0  0  0
   -0.4256    0.4473    3.0502 H   0  0  0  0  0  0  0  0  0  0  0  0
    1.2498    0.0165    2.5575 H   0  0  0  0  0  0  0  0  0  0  0  0
   -3.2488    2.0392    1.0146 H   0  0  0  0  0  0  0  0  0  0  0  0
   -2.3908   -1.2260    2.2386 H   0  0  0  0  0  0  0  0  0  0  0  0
   -1.4561   -1.5109   -1.6696 H   0  0  0  0  0  0  0  0  0  0  0  0
   -2.2486    0.5079   -2.2399 H   0  0  0  0  0  0  0  0  0  0  0  0
    1.2452   -2.7375   -0.7831 H   0  0  0  0  0  0  0  0  0  0  0  0
    0.1554   -3.4286   -2.0324 H   0  0  0  0  0  0  0  0  0  0  0  0
   -0.3920   -3.3420   -0.3332 H   0  0  0  0  0  0  0  0  0  0  0  0
    0.1985   -1.3905   -3.5303 H   0  0  0  0  0  0  0  0  0  0  0  0
  2  4  1  0  0  0  0
  2  1  1  0  0  0  0
  2  3  1  0  0  0  0
  4  6  1  0  0  0  0
  4  5  1  0  0  0  0
  6  1  1  0  0  0  0
  6  8  1  0  0  0  0
  7  6  1  0  0  0  0
  9  4  1  0  0  0  0
 10  2  1  0  0  0  0
  1 11  1  0  0  0  0
  1 12  1  0  0  0  0
 13 14  1  0  0  0  0
 13 22  1  0  0  0  0
 13 24  1  0  0  0  0
 14 15  1  0  0  0  0
 14 16  1  0  0  0  0
 14 26  1  0  0  0  0
 16 17  1  0  0  0  0
 16 18  1  0  0  0  0
 19 20  1  0  0  0  0
 19 21  1  0  0  0  0
 19 24  1  0  0  0  0
 22 23  1  0  0  0  0
 22 29  1  0  0  0  0
 22 32  1  0  0  0  0
 24 25  1  0  0  0  0
 26 27  1  0  0  0  0
 26 28  1  0  0  0  0
 29 30  1  0  0  0  0
 29 31  1  0  0  0  0
 32 33  1  0  0  0  0
 32 34  1  0  0  0  0
 32 35  1  0  0  0  0
 16 36  1  0  0  0  0
 29 37  1  0  0  0  0
 24 38  1  0  0  0  0
 26 39  1  0  0  0  0
 25 40  1  0  0  0  0
 25 41  1  0  0  0  0
 25 42  1  0  0  0  0
 19 43  1  0  0  0  0
  1 13  1  0  0  0  0
M  END
>  <DFT-ENERGY>
-1828.91053504

$$$$
