
  CDK     08132404373D

 49 49  0  0  0  0  0  0  0  0999 V2000
   -0.6079    3.3966   -2.0666 C   0  0  0  0  0  0  0  0  0  0  0  0
    0.3999    3.3230   -2.5117 H   0  0  0  0  0  0  0  0  0  0  0  0
   -1.0940    4.3435   -2.3918 H   0  0  0  0  0  0  0  0  0  0  0  0
   -1.2266    2.5727   -2.4793 H   0  0  0  0  0  0  0  0  0  0  0  0
   -0.5692    3.3694   -0.5559 C   0  0  0  0  0  0  0  0  0  0  0  0
   -1.5428    3.4913   -0.0452 H   0  0  0  0  0  0  0  0  0  0  0  0
    0.5632    3.7698    0.2004 C   0  0  0  0  0  0  0  0  0  0  0  0
    1.5089    3.9055   -0.3534 H   0  0  0  0  0  0  0  0  0  0  0  0
    0.3789    4.5410    1.4871 C   0  0  0  0  0  0  0  0  0  0  0  0
    1.2923    4.5657    2.1106 H   0  0  0  0  0  0  0  0  0  0  0  0
    0.1246    5.5910    1.2260 H   0  0  0  0  0  0  0  0  0  0  0  0
   -0.4597    4.1223    2.0773 H   0  0  0  0  0  0  0  0  0  0  0  0
    1.3803    1.9238    1.3452 C   0  0  0  0  0  0  0  0  0  0  0  0
    1.0621    2.1262    2.3916 H   0  0  0  0  0  0  0  0  0  0  0  0
    2.4655    2.0222    1.1130 H   0  0  0  0  0  0  0  0  0  0  0  0
    0.1750    1.4200    0.0704 Ru  0  0  0  0  0  0  0  0  0  0  0  0
   -1.6318    1.5293    1.6569 Cl  0  0  0  0  0  0  0  0  0  0  0  0
    1.9272    1.3699   -1.5767 Cl  0  0  0  0  0  0  0  0  0  0  0  0
    0.0480   -0.9335   -0.0400 P   0  0  0  0  0  0  0  0  0  0  0  0
   -0.5387   -1.8971    1.4707 C   0  0  0  0  0  0  0  0  0  0  0  0
   -0.1355   -2.9184    1.2928 H   0  0  0  0  0  0  0  0  0  0  0  0
    0.0961   -1.3194    2.7438 C   0  0  0  0  0  0  0  0  0  0  0  0
    1.1975   -1.2425    2.6726 H   0  0  0  0  0  0  0  0  0  0  0  0
   -0.3118   -0.3088    2.9412 H   0  0  0  0  0  0  0  0  0  0  0  0
   -2.3456   -0.3241   -1.3620 C   0  0  0  0  0  0  0  0  0  0  0  0
   -2.8196   -0.2923   -0.3655 H   0  0  0  0  0  0  0  0  0  0  0  0
   -2.0183    0.7129   -1.5916 H   0  0  0  0  0  0  0  0  0  0  0  0
    1.6431   -1.7896   -0.5498 C   0  0  0  0  0  0  0  0  0  0  0  0
    1.8684   -1.2722   -1.5048 H   0  0  0  0  0  0  0  0  0  0  0  0
   -1.1571   -1.2946   -1.4461 C   0  0  0  0  0  0  0  0  0  0  0  0
   -0.4787   -1.1888   -2.8187 C   0  0  0  0  0  0  0  0  0  0  0  0
   -2.0615   -1.9949    1.6122 C   0  0  0  0  0  0  0  0  0  0  0  0
   -2.3008   -2.6260    2.4937 H   0  0  0  0  0  0  0  0  0  0  0  0
   -2.5018   -0.9929    1.7783 H   0  0  0  0  0  0  0  0  0  0  0  0
    1.4773   -3.2945   -0.7879 C   0  0  0  0  0  0  0  0  0  0  0  0
    0.6278   -3.5376   -1.4561 H   0  0  0  0  0  0  0  0  0  0  0  0
    2.3973   -3.6989   -1.2588 H   0  0  0  0  0  0  0  0  0  0  0  0
    2.7997   -1.4899    0.4079 C   0  0  0  0  0  0  0  0  0  0  0  0
    3.7493   -1.8549   -0.0350 H   0  0  0  0  0  0  0  0  0  0  0  0
    2.6739   -2.0005    1.3840 H   0  0  0  0  0  0  0  0  0  0  0  0
    2.9054   -0.4018    0.5774 H   0  0  0  0  0  0  0  0  0  0  0  0
   -0.1436   -1.9738    3.6076 H   0  0  0  0  0  0  0  0  0  0  0  0
    1.3314   -3.8490    0.1618 H   0  0  0  0  0  0  0  0  0  0  0  0
   -1.5175   -2.3341   -1.2843 H   0  0  0  0  0  0  0  0  0  0  0  0
   -2.5442   -2.4628    0.7321 H   0  0  0  0  0  0  0  0  0  0  0  0
    0.0403   -0.2149   -2.9354 H   0  0  0  0  0  0  0  0  0  0  0  0
   -1.2495   -1.2699   -3.6129 H   0  0  0  0  0  0  0  0  0  0  0  0
    0.2641   -1.9895   -2.9939 H   0  0  0  0  0  0  0  0  0  0  0  0
   -3.1103   -0.5986   -2.1176 H   0  0  0  0  0  0  0  0  0  0  0  0
  1  2  1  0  0  0  0
  1  5  1  0  0  0  0
  3  1  1  0  0  0  0
  4  1  1  0  0  0  0
  5  6  1  0  0  0  0
  5 16  1  0  0  0  0
  5  7  1  0  0  0  0
  7  9  1  0  0  0  0
  7  8  1  0  0  0  0
  9 10  1  0  0  0  0
 11  9  1  0  0  0  0
 12  9  1  0  0  0  0
 13 14  1  0  0  0  0
 13 15  1  0  0  0  0
 13  7  1  0  0  0  0
 16 13  1  0  0  0  0
 16 17  1  0  0  0  0
 16 18  1  0  0  0  0
 19 20  1  0  0  0  0
 19 28  1  0  0  0  0
 19 30  1  0  0  0  0
 20 21  1  0  0  0  0
 20 22  1  0  0  0  0
 20 32  1  0  0  0  0
 22 23  1  0  0  0  0
 22 24  1  0  0  0  0
 25 26  1  0  0  0  0
 25 27  1  0  0  0  0
 25 30  1  0  0  0  0
 28 29  1  0  0  0  0
 28 35  1  0  0  0  0
 28 38  1  0  0  0  0
 30 31  1  0  0  0  0
 32 33  1  0  0  0  0
 32 34  1  0  0  0  0
 35 36  1  0  0  0  0
 35 37  1  0  0  0  0
 38 39  1  0  0  0  0
 38 40  1  0  0  0  0
 38 41  1  0  0  0  0
 22 42  1  0  0  0  0
 35 43  1  0  0  0  0
 30 44  1  0  0  0  0
 32 45  1  0  0  0  0
 31 46  1  0  0  0  0
 31 47  1  0  0  0  0
 31 48  1  0  0  0  0
 25 49  1  0  0  0  0
 16 19  1  0  0  0  0
M  END
>  <DFT-ENERGY>
-1907.42104311

$$$$
