
  CDK     08142418133D

 55 58  0  0  0  0  0  0  0  0999 V2000
   -0.7578    3.0753   -1.9869 C   0  0  0  0  0  0  0  0  0  0  0  0
    0.2851    3.1017   -2.3488 H   0  0  0  0  0  0  0  0  0  0  0  0
   -1.2900    3.9935   -2.3232 H   0  0  0  0  0  0  0  0  0  0  0  0
   -1.2678    2.2161   -2.4650 H   0  0  0  0  0  0  0  0  0  0  0  0
   -0.8296    3.0015   -0.4803 C   0  0  0  0  0  0  0  0  0  0  0  0
   -1.8458    3.0242   -0.0424 H   0  0  0  0  0  0  0  0  0  0  0  0
    0.1977    3.4855    0.3733 C   0  0  0  0  0  0  0  0  0  0  0  0
    1.1602    3.7257   -0.1120 H   0  0  0  0  0  0  0  0  0  0  0  0
   -0.1439    4.2056    1.6571 C   0  0  0  0  0  0  0  0  0  0  0  0
    0.7275    4.3164    2.3296 H   0  0  0  0  0  0  0  0  0  0  0  0
   -0.5046    5.2258    1.4035 H   0  0  0  0  0  0  0  0  0  0  0  0
   -0.9551    3.6753    2.1941 H   0  0  0  0  0  0  0  0  0  0  0  0
    1.1711    1.6872    1.4709 C   0  0  0  0  0  0  0  0  0  0  0  0
    0.8706    1.8603    2.5264 H   0  0  0  0  0  0  0  0  0  0  0  0
    2.2394    1.8462    1.2040 H   0  0  0  0  0  0  0  0  0  0  0  0
   -0.0327    1.0927    0.2245 Ru  0  0  0  0  0  0  0  0  0  0  0  0
   -1.7945    1.0889    1.8748 Cl  0  0  0  0  0  0  0  0  0  0  0  0
    1.7235    1.0345   -1.4253 Cl  0  0  0  0  0  0  0  0  0  0  0  0
   -0.0841   -0.8842    0.1936 C   0  0  0  0  0  0  0  0  0  0  0  0
   -0.6953   -1.5660   -0.8101 N   0  0  0  0  0  0  0  0  0  0  0  0
   -0.8171   -3.0008   -0.4889 C   0  0  0  0  0  0  0  0  0  0  0  0
    0.2499   -3.1626    0.6088 C   0  0  0  0  0  0  0  0  0  0  0  0
    0.4242   -1.7726    1.0779 N   0  0  0  0  0  0  0  0  0  0  0  0
   -1.8422   -3.2195   -0.1163 H   0  0  0  0  0  0  0  0  0  0  0  0
    1.2069   -3.5567    0.2023 H   0  0  0  0  0  0  0  0  0  0  0  0
    1.2283   -1.4119    2.2072 C   0  0  0  0  0  0  0  0  0  0  0  0
    2.7299   -0.6688    4.4362 C   0  0  0  0  0  0  0  0  0  0  0  0
    2.6318   -1.3007    2.0676 C   0  0  0  0  0  0  0  0  0  0  0  0
    0.5822   -1.1432    3.4232 C   0  0  0  0  0  0  0  0  0  0  0  0
    1.3350   -0.7702    4.5445 C   0  0  0  0  0  0  0  0  0  0  0  0
    3.3635   -0.9284    3.2121 C   0  0  0  0  0  0  0  0  0  0  0  0
    0.8301   -0.5489    5.4953 H   0  0  0  0  0  0  0  0  0  0  0  0
    4.4565   -0.8299    3.1296 H   0  0  0  0  0  0  0  0  0  0  0  0
   -1.5380   -0.8786   -1.7433 C   0  0  0  0  0  0  0  0  0  0  0  0
   -3.1856    0.4871   -3.5334 C   0  0  0  0  0  0  0  0  0  0  0  0
   -2.6703   -0.1937   -1.2651 C   0  0  0  0  0  0  0  0  0  0  0  0
   -1.1914   -0.8788   -3.1152 C   0  0  0  0  0  0  0  0  0  0  0  0
   -2.0449   -0.1898   -3.9955 C   0  0  0  0  0  0  0  0  0  0  0  0
   -3.4953    0.4966   -2.1665 C   0  0  0  0  0  0  0  0  0  0  0  0
   -1.7932   -0.1685   -5.0664 H   0  0  0  0  0  0  0  0  0  0  0  0
   -4.3761    1.0382   -1.7942 H   0  0  0  0  0  0  0  0  0  0  0  0
    0.0824   -1.5248   -3.5837 C   0  0  0  0  0  0  0  0  0  0  0  0
    0.2115   -1.4030   -4.6753 H   0  0  0  0  0  0  0  0  0  0  0  0
    0.1109   -2.6109   -3.3567 H   0  0  0  0  0  0  0  0  0  0  0  0
    0.9438   -1.0519   -3.0651 H   0  0  0  0  0  0  0  0  0  0  0  0
    3.3030   -1.5101    0.7376 C   0  0  0  0  0  0  0  0  0  0  0  0
    3.1625   -2.5445    0.3593 H   0  0  0  0  0  0  0  0  0  0  0  0
    4.3917   -1.3303    0.8144 H   0  0  0  0  0  0  0  0  0  0  0  0
    2.8879   -0.8182   -0.0290 H   0  0  0  0  0  0  0  0  0  0  0  0
   -0.0763   -3.8155    1.4400 H   0  0  0  0  0  0  0  0  0  0  0  0
   -0.6214   -3.6309   -1.3774 H   0  0  0  0  0  0  0  0  0  0  0  0
   -2.8825   -0.1923   -0.1857 H   0  0  0  0  0  0  0  0  0  0  0  0
   -3.8276    1.0217   -4.2488 H   0  0  0  0  0  0  0  0  0  0  0  0
    3.3313   -0.3757    5.3092 H   0  0  0  0  0  0  0  0  0  0  0  0
   -0.5145   -1.1876    3.4559 H   0  0  0  0  0  0  0  0  0  0  0  0
  1  2  1  0  0  0  0
  1  5  1  0  0  0  0
  3  1  1  0  0  0  0
  4  1  1  0  0  0  0
  5  6  1  0  0  0  0
  5 16  1  0  0  0  0
  5  7  1  0  0  0  0
  7  9  1  0  0  0  0
  7  8  1  0  0  0  0
  9 10  1  0  0  0  0
 11  9  1  0  0  0  0
 12  9  1  0  0  0  0
 13 14  1  0  0  0  0
 13 15  1  0  0  0  0
 13  7  1  0  0  0  0
 16 13  1  0  0  0  0
 16 17  1  0  0  0  0
 16 18  1  0  0  0  0
 19 20  1  0  0  0  0
 19 23  1  0  0  0  0
 20 21  1  0  0  0  0
 20 34  1  0  0  0  0
 21 24  1  0  0  0  0
 21 22  1  0  0  0  0
 21 51  1  0  0  0  0
 22 25  1  0  0  0  0
 22 23  1  0  0  0  0
 22 50  1  0  0  0  0
 23 26  1  0  0  0  0
 26 29  2  0  0  0  0
 26 28  1  0  0  0  0
 27 30  2  0  0  0  0
 27 31  1  0  0  0  0
 27 54  1  0  0  0  0
 28 31  2  0  0  0  0
 28 46  1  0  0  0  0
 29 30  1  0  0  0  0
 29 55  1  0  0  0  0
 30 32  1  0  0  0  0
 31 33  1  0  0  0  0
 34 37  2  0  0  0  0
 34 36  1  0  0  0  0
 35 38  2  0  0  0  0
 35 39  1  0  0  0  0
 35 53  1  0  0  0  0
 36 39  2  0  0  0  0
 36 52  1  0  0  0  0
 37 38  1  0  0  0  0
 37 42  1  0  0  0  0
 38 40  1  0  0  0  0
 39 41  1  0  0  0  0
 42 43  1  0  0  0  0
 42 44  1  0  0  0  0
 42 45  1  0  0  0  0
 46 47  1  0  0  0  0
 46 48  1  0  0  0  0
 46 49  1  0  0  0  0
 16 19  1  0  0  0  0
M  END
>  <DFT-ENERGY>
-1978.35230164

$$$$
