
  CDK     08142418133D

 49 53  0  0  0  0  0  0  0  0999 V2000
   -1.0584    2.7466    1.1937 H   0  0  0  0  0  0  0  0  0  0  0  0
   -2.2829    2.7209    1.3120 C   0  0  0  0  0  0  0  0  0  0  0  0
   -2.2408    3.8072    1.5523 H   0  0  0  0  0  0  0  0  0  0  0  0
   -2.4594    1.6529    2.3417 C   0  0  0  0  0  0  0  0  0  0  0  0
   -3.4031    1.0828    2.3186 H   0  0  0  0  0  0  0  0  0  0  0  0
   -2.0665    1.8710    3.3499 H   0  0  0  0  0  0  0  0  0  0  0  0
   -1.0825    0.9899    0.9487 Ru  0  0  0  0  0  0  0  0  0  0  0  0
   -2.5864    2.2221   -0.0309 C   0  0  0  0  0  0  0  0  0  0  0  0
   -3.4821    1.6090   -0.1876 H   0  0  0  0  0  0  0  0  0  0  0  0
   -2.2455    2.8178   -0.8943 H   0  0  0  0  0  0  0  0  0  0  0  0
   -2.6694   -0.6972    0.1509 Cl  0  0  0  0  0  0  0  0  0  0  0  0
    0.8412    1.9034    2.0920 Cl  0  0  0  0  0  0  0  0  0  0  0  0
   -0.1574   -0.7916    1.3091 C   0  0  0  0  0  0  0  0  0  0  0  0
    0.1708   -1.3605    2.4830 N   0  0  0  0  0  0  0  0  0  0  0  0
    0.9614   -2.5949    2.2995 C   0  0  0  0  0  0  0  0  0  0  0  0
    1.3116   -2.5526    0.8001 C   0  0  0  0  0  0  0  0  0  0  0  0
    0.3866   -1.5191    0.2934 N   0  0  0  0  0  0  0  0  0  0  0  0
    1.8537   -2.5850    2.9540 H   0  0  0  0  0  0  0  0  0  0  0  0
    1.1571   -3.5270    0.3038 H   0  0  0  0  0  0  0  0  0  0  0  0
    0.3376   -1.0249   -1.0373 C   0  0  0  0  0  0  0  0  0  0  0  0
    0.0528    0.0904   -3.5978 C   0  0  0  0  0  0  0  0  0  0  0  0
    0.1121   -1.8872   -2.1350 C   0  0  0  0  0  0  0  0  0  0  0  0
    0.3847    0.3741   -1.2176 C   0  0  0  0  0  0  0  0  0  0  0  0
    0.2311    0.9327   -2.4935 C   0  0  0  0  0  0  0  0  0  0  0  0
   -0.0037   -1.2985   -3.4085 C   0  0  0  0  0  0  0  0  0  0  0  0
    0.2658    2.0245   -2.6143 H   0  0  0  0  0  0  0  0  0  0  0  0
   -0.1880   -1.9566   -4.2713 H   0  0  0  0  0  0  0  0  0  0  0  0
   -0.3354   -0.9788    3.7723 C   0  0  0  0  0  0  0  0  0  0  0  0
   -1.2485   -0.2343    6.3014 C   0  0  0  0  0  0  0  0  0  0  0  0
    0.4797   -0.2004    4.6068 C   0  0  0  0  0  0  0  0  0  0  0  0
   -1.6110   -1.4266    4.1869 C   0  0  0  0  0  0  0  0  0  0  0  0
   -2.0475   -1.0263    5.4649 C   0  0  0  0  0  0  0  0  0  0  0  0
    0.0237    0.1752    5.8770 C   0  0  0  0  0  0  0  0  0  0  0  0
   -3.0410   -1.3540    5.8064 H   0  0  0  0  0  0  0  0  0  0  0  0
    0.6573    0.7966    6.5252 H   0  0  0  0  0  0  0  0  0  0  0  0
   -2.4699   -2.2868    3.3030 C   0  0  0  0  0  0  0  0  0  0  0  0
   -3.4089   -2.5645    3.8177 H   0  0  0  0  0  0  0  0  0  0  0  0
   -1.9513   -3.2273    3.0200 H   0  0  0  0  0  0  0  0  0  0  0  0
   -2.7212   -1.7681    2.3526 H   0  0  0  0  0  0  0  0  0  0  0  0
   -0.1154   -3.3647   -1.9541 C   0  0  0  0  0  0  0  0  0  0  0  0
    0.8249   -3.9256   -1.7656 H   0  0  0  0  0  0  0  0  0  0  0  0
   -0.5783   -3.7999   -2.8596 H   0  0  0  0  0  0  0  0  0  0  0  0
   -0.7980   -3.5454   -1.0985 H   0  0  0  0  0  0  0  0  0  0  0  0
    2.3581   -2.2262    0.6214 H   0  0  0  0  0  0  0  0  0  0  0  0
    0.3416   -3.4777    2.5666 H   0  0  0  0  0  0  0  0  0  0  0  0
    1.4554    0.1321    4.2316 H   0  0  0  0  0  0  0  0  0  0  0  0
   -1.6215    0.0602    7.2933 H   0  0  0  0  0  0  0  0  0  0  0  0
   -0.0600    0.5111   -4.6071 H   0  0  0  0  0  0  0  0  0  0  0  0
    0.6584    1.0320   -0.3597 H   0  0  0  0  0  0  0  0  0  0  0  0
  1  2  1  0  0  0  0
  1  7  1  0  0  0  0
  2  3  1  0  0  0  0
  2  4  1  0  0  0  0
  4  5  1  0  0  0  0
  4  6  1  0  0  0  0
  7  8  1  0  0  0  0
  4  7  1  0  0  0  0
  2  8  1  0  0  0  0
  8  9  1  0  0  0  0
  8 10  1  0  0  0  0
  7 11  1  0  0  0  0
  7 12  1  0  0  0  0
 13 14  1  0  0  0  0
 13 17  1  0  0  0  0
 14 15  1  0  0  0  0
 14 28  1  0  0  0  0
 15 18  1  0  0  0  0
 15 16  1  0  0  0  0
 15 45  1  0  0  0  0
 16 19  1  0  0  0  0
 16 17  1  0  0  0  0
 16 44  1  0  0  0  0
 17 20  1  0  0  0  0
 20 23  2  0  0  0  0
 20 22  1  0  0  0  0
 21 24  2  0  0  0  0
 21 25  1  0  0  0  0
 21 48  1  0  0  0  0
 22 25  2  0  0  0  0
 22 40  1  0  0  0  0
 23 24  1  0  0  0  0
 23 49  1  0  0  0  0
 24 26  1  0  0  0  0
 25 27  1  0  0  0  0
 28 31  2  0  0  0  0
 28 30  1  0  0  0  0
 29 32  2  0  0  0  0
 29 33  1  0  0  0  0
 29 47  1  0  0  0  0
 30 33  2  0  0  0  0
 30 46  1  0  0  0  0
 31 32  1  0  0  0  0
 31 36  1  0  0  0  0
 32 34  1  0  0  0  0
 33 35  1  0  0  0  0
 36 37  1  0  0  0  0
 36 38  1  0  0  0  0
 36 39  1  0  0  0  0
 40 41  1  0  0  0  0
 40 42  1  0  0  0  0
 40 43  1  0  0  0  0
  7 13  1  0  0  0  0
M  END
>  <DFT-ENERGY>
-1899.80259239

$$$$
