
  CDK     08032420593D

 80 84  0  0  0  0  0  0  0  0999 V2000
    1.1384   -0.0466   -1.2263 Ru  0  0  0  0  0  0  0  0  0  0  0  0
    2.6478   -1.2600   -1.5659 C   0  0  0  0  0  0  0  0  0  0  0  0
    2.3720   -2.3001   -1.8128 H   0  0  0  0  0  0  0  0  0  0  0  0
    2.7129   -0.3211   -2.8473 C   0  0  0  0  0  0  0  0  0  0  0  0
    2.5399   -0.9742   -3.7215 H   0  0  0  0  0  0  0  0  0  0  0  0
    1.6522    0.8363   -2.9164 C   0  0  0  0  0  0  0  0  0  0  0  0
    2.0846    1.8445   -2.8010 H   0  0  0  0  0  0  0  0  0  0  0  0
    0.9072    0.7179   -3.7222 H   0  0  0  0  0  0  0  0  0  0  0  0
    3.7069    0.1614   -2.8237 H   0  0  0  0  0  0  0  0  0  0  0  0
    3.5189   -1.1345   -0.8994 H   0  0  0  0  0  0  0  0  0  0  0  0
   -0.2212   -1.5413   -2.5269 Cl  0  0  0  0  0  0  0  0  0  0  0  0
    2.6619    1.4340   -0.1363 Cl  0  0  0  0  0  0  0  0  0  0  0  0
   -0.7629   -0.4993    1.0845 N   0  0  0  0  0  0  0  0  0  0  0  0
   -2.0481    0.0988    1.6714 C   0  0  0  0  0  0  0  0  0  0  0  0
   -2.4421    1.0671    0.5439 C   0  0  0  0  0  0  0  0  0  0  0  0
   -3.0100    1.9397    0.9172 H   0  0  0  0  0  0  0  0  0  0  0  0
   -3.0773    0.5310   -0.1890 H   0  0  0  0  0  0  0  0  0  0  0  0
   -1.1234    1.4829   -0.1377 C   0  0  0  0  0  0  0  0  0  0  0  0
   -0.2793    0.2177    0.0665 C   0  0  0  0  0  0  0  0  0  0  0  0
   -0.4256    2.7278    0.5333 C   0  0  0  0  0  0  0  0  0  0  0  0
    0.4029    2.4256    1.2009 H   0  0  0  0  0  0  0  0  0  0  0  0
   -1.1880    3.2508    1.1438 H   0  0  0  0  0  0  0  0  0  0  0  0
    0.0904    3.6443   -0.6010 C   0  0  0  0  0  0  0  0  0  0  0  0
    1.1930    3.5517   -0.6909 H   0  0  0  0  0  0  0  0  0  0  0  0
   -0.1435    4.7115   -0.4102 H   0  0  0  0  0  0  0  0  0  0  0  0
   -0.5840    3.1187   -1.8396 C   0  0  0  0  0  0  0  0  0  0  0  0
   -0.5634    3.6407   -3.1417 C   0  0  0  0  0  0  0  0  0  0  0  0
   -0.0446    4.5784   -3.3872 H   0  0  0  0  0  0  0  0  0  0  0  0
   -1.2103    2.9620   -4.1827 C   0  0  0  0  0  0  0  0  0  0  0  0
   -1.9046    1.7428   -3.9188 C   0  0  0  0  0  0  0  0  0  0  0  0
   -1.9258    1.2257   -2.6146 C   0  0  0  0  0  0  0  0  0  0  0  0
   -2.4132    0.2673   -2.4050 H   0  0  0  0  0  0  0  0  0  0  0  0
   -1.2518    1.9108   -1.5929 C   0  0  0  0  0  0  0  0  0  0  0  0
   -1.2008    3.5299   -5.4373 O   0  0  0  0  0  0  0  0  0  0  0  0
   -0.5153    2.7657   -6.4400 C   0  0  0  0  0  0  0  0  0  0  0  0
    0.5487    2.6048   -6.1537 H   0  0  0  0  0  0  0  0  0  0  0  0
   -1.0023    1.7849   -6.6148 H   0  0  0  0  0  0  0  0  0  0  0  0
   -0.5545    3.3717   -7.3646 H   0  0  0  0  0  0  0  0  0  0  0  0
   -2.5159    1.1539   -4.9941 O   0  0  0  0  0  0  0  0  0  0  0  0
   -3.1155   -0.1227   -4.7655 C   0  0  0  0  0  0  0  0  0  0  0  0
   -2.3787   -0.8473   -4.3562 H   0  0  0  0  0  0  0  0  0  0  0  0
   -3.9789   -0.0442   -4.0676 H   0  0  0  0  0  0  0  0  0  0  0  0
   -3.4777   -0.4637   -5.7520 H   0  0  0  0  0  0  0  0  0  0  0  0
   -3.1152   -0.9683    1.8943 C   0  0  0  0  0  0  0  0  0  0  0  0
   -4.0267   -0.4758    2.2876 H   0  0  0  0  0  0  0  0  0  0  0  0
   -2.7919   -1.7266    2.6330 H   0  0  0  0  0  0  0  0  0  0  0  0
   -3.3810   -1.4756    0.9501 H   0  0  0  0  0  0  0  0  0  0  0  0
   -1.7457    0.8011    2.9988 C   0  0  0  0  0  0  0  0  0  0  0  0
   -2.6720    1.2740    3.3806 H   0  0  0  0  0  0  0  0  0  0  0  0
   -0.9735    1.5833    2.8934 H   0  0  0  0  0  0  0  0  0  0  0  0
   -1.4043    0.0676    3.7538 H   0  0  0  0  0  0  0  0  0  0  0  0
   -0.1437   -1.6312    1.7589 C   0  0  0  0  0  0  0  0  0  0  0  0
   -0.6078   -2.9519    1.4944 C   0  0  0  0  0  0  0  0  0  0  0  0
    0.8207   -1.3856    2.7794 C   0  0  0  0  0  0  0  0  0  0  0  0
   -0.1950   -3.9832    2.3596 C   0  0  0  0  0  0  0  0  0  0  0  0
    0.6649   -3.7411    3.4325 C   0  0  0  0  0  0  0  0  0  0  0  0
   -0.5542   -5.0050    2.1728 H   0  0  0  0  0  0  0  0  0  0  0  0
    1.1903   -2.4604    3.6111 C   0  0  0  0  0  0  0  0  0  0  0  0
    1.9216   -2.2809    4.4118 H   0  0  0  0  0  0  0  0  0  0  0  0
    0.9550   -4.5594    4.1074 H   0  0  0  0  0  0  0  0  0  0  0  0
   -1.4156   -3.3516    0.2647 C   0  0  0  0  0  0  0  0  0  0  0  0
   -1.6704   -2.4356   -0.3042 H   0  0  0  0  0  0  0  0  0  0  0  0
   -2.7003   -4.1322    0.5935 C   0  0  0  0  0  0  0  0  0  0  0  0
   -2.4672   -5.1113    1.0605 H   0  0  0  0  0  0  0  0  0  0  0  0
   -3.2608   -4.3443   -0.3394 H   0  0  0  0  0  0  0  0  0  0  0  0
   -3.3740   -3.5896    1.2827 H   0  0  0  0  0  0  0  0  0  0  0  0
   -0.5207   -4.2181   -0.6454 C   0  0  0  0  0  0  0  0  0  0  0  0
    0.4238   -3.6993   -0.8883 H   0  0  0  0  0  0  0  0  0  0  0  0
   -1.0373   -4.4281   -1.6027 H   0  0  0  0  0  0  0  0  0  0  0  0
   -0.2840   -5.1855   -0.1552 H   0  0  0  0  0  0  0  0  0  0  0  0
    1.5733   -0.0721    2.9627 C   0  0  0  0  0  0  0  0  0  0  0  0
    1.1940    0.6626    2.2267 H   0  0  0  0  0  0  0  0  0  0  0  0
    3.0620   -0.3095    2.6381 C   0  0  0  0  0  0  0  0  0  0  0  0
    3.5249   -0.9856    3.3867 H   0  0  0  0  0  0  0  0  0  0  0  0
    3.6123    0.6511    2.6433 H   0  0  0  0  0  0  0  0  0  0  0  0
    3.1869   -0.7535    1.6337 H   0  0  0  0  0  0  0  0  0  0  0  0
    1.4496    0.5210    4.3764 C   0  0  0  0  0  0  0  0  0  0  0  0
    0.4014    0.7103    4.6739 H   0  0  0  0  0  0  0  0  0  0  0  0
    1.9993    1.4824    4.4299 H   0  0  0  0  0  0  0  0  0  0  0  0
    1.8964   -0.1533    5.1358 H   0  0  0  0  0  0  0  0  0  0  0  0
  2  4  1  0  0  0  0
  2  1  1  0  0  0  0
  2  3  1  0  0  0  0
  4  6  1  0  0  0  0
  4  5  1  0  0  0  0
  6  1  1  0  0  0  0
  6  8  1  0  0  0  0
  7  6  1  0  0  0  0
  9  4  1  0  0  0  0
 10  2  1  0  0  0  0
  1 11  1  0  0  0  0
  1 12  1  0  0  0  0
 13 14  1  0  0  0  0
 13 19  1  0  0  0  0
 14 15  1  0  0  0  0
 15 16  1  0  0  0  0
 15 17  1  0  0  0  0
 15 18  1  0  0  0  0
 18 19  1  0  0  0  0
 18 20  1  0  0  0  0
 18 33  1  0  0  0  0
 20 21  1  0  0  0  0
 20 22  1  0  0  0  0
 20 23  1  0  0  0  0
 23 24  1  0  0  0  0
 23 25  1  0  0  0  0
 23 26  1  0  0  0  0
 26 27  2  0  0  0  0
 26 33  2  0  0  0  0
 27 28  1  0  0  0  0
 27 29  2  0  0  0  0
 29 30  2  0  0  0  0
 29 34  1  0  0  0  0
 30 31  2  0  0  0  0
 30 39  1  0  0  0  0
 31 32  1  0  0  0  0
 31 33  2  0  0  0  0
 34 35  1  0  0  0  0
 35 36  1  0  0  0  0
 35 37  1  0  0  0  0
 35 38  1  0  0  0  0
 39 40  1  0  0  0  0
 40 41  1  0  0  0  0
 40 42  1  0  0  0  0
 40 43  1  0  0  0  0
 44 45  1  0  0  0  0
 44 46  1  0  0  0  0
 44 47  1  0  0  0  0
 14 44  1  0  0  0  0
 48 49  1  0  0  0  0
 48 50  1  0  0  0  0
 48 51  1  0  0  0  0
 14 48  1  0  0  0  0
 52 53  1  0  0  0  0
 52 54  2  0  0  0  0
 53 55  2  0  0  0  0
 55 56  1  0  0  0  0
 55 57  1  0  0  0  0
 56 58  2  0  0  0  0
 58 59  1  0  0  0  0
 54 58  1  0  0  0  0
 13 52  1  0  0  0  0
 56 60  1  0  0  0  0
 61 62  1  0  0  0  0
 61 63  1  0  0  0  0
 63 64  1  0  0  0  0
 63 65  1  0  0  0  0
 63 66  1  0  0  0  0
 61 67  1  0  0  0  0
 67 68  1  0  0  0  0
 67 69  1  0  0  0  0
 67 70  1  0  0  0  0
 53 61  1  0  0  0  0
 71 72  1  0  0  0  0
 71 73  1  0  0  0  0
 73 74  1  0  0  0  0
 73 75  1  0  0  0  0
 73 76  1  0  0  0  0
 71 77  1  0  0  0  0
 77 78  1  0  0  0  0
 77 79  1  0  0  0  0
 77 80  1  0  0  0  0
 54 71  1  0  0  0  0
  1 19  1  0  0  0  0
M  END
>  <DFT-ENERGY>
-2425.51450246

$$$$
