
  CDK     02032407563D

 61 64  0  0  0  0  0  0  0  0999 V2000
    1.2446    0.7417   -0.1323 Ru  0  0  0  0  0  0  0  0  0  0  0  0
    2.8366    0.6548   -1.2701 C   0  0  0  0  0  0  0  0  0  0  0  0
    2.6788    0.9441   -2.3240 H   0  0  0  0  0  0  0  0  0  0  0  0
    3.1737    1.8805   -0.3266 C   0  0  0  0  0  0  0  0  0  0  0  0
    3.2813    2.7602   -0.9866 H   0  0  0  0  0  0  0  0  0  0  0  0
    2.0888    2.2675    0.7596 C   0  0  0  0  0  0  0  0  0  0  0  0
    2.4218    2.0821    1.7959 H   0  0  0  0  0  0  0  0  0  0  0  0
    1.6099    3.2440    0.5668 H   0  0  0  0  0  0  0  0  0  0  0  0
    4.0864    1.6029    0.2311 H   0  0  0  0  0  0  0  0  0  0  0  0
    3.4875   -0.2202   -1.0951 H   0  0  0  0  0  0  0  0  0  0  0  0
    0.3116    2.2672   -1.7222 Cl  0  0  0  0  0  0  0  0  0  0  0  0
    2.3678   -0.6713    1.4388 Cl  0  0  0  0  0  0  0  0  0  0  0  0
   -1.3583   -0.1233    1.0463 N   0  0  0  0  0  0  0  0  0  0  0  0
   -0.9218   -1.1880   -0.8381 N   0  0  0  0  0  0  0  0  0  0  0  0
   -0.4681   -0.2644    0.0388 C   0  0  0  0  0  0  0  0  0  0  0  0
   -2.5851   -0.9096    0.8013 C   0  0  0  0  0  0  0  0  0  0  0  0
   -3.4198   -0.2330    0.5172 H   0  0  0  0  0  0  0  0  0  0  0  0
   -2.8806   -1.4628    1.7132 H   0  0  0  0  0  0  0  0  0  0  0  0
   -2.1594   -1.8344   -0.3545 C   0  0  0  0  0  0  0  0  0  0  0  0
   -1.9390   -2.8683   -0.0113 H   0  0  0  0  0  0  0  0  0  0  0  0
   -2.9112   -1.8896   -1.1647 H   0  0  0  0  0  0  0  0  0  0  0  0
   -1.2000    0.8044    2.1324 C   0  0  0  0  0  0  0  0  0  0  0  0
   -0.6926    0.3207    3.3616 C   0  0  0  0  0  0  0  0  0  0  0  0
   -0.5007    1.2440    4.4011 C   0  0  0  0  0  0  0  0  0  0  0  0
   -0.0955    0.8827    5.3591 H   0  0  0  0  0  0  0  0  0  0  0  0
   -0.8110    2.6083    4.2504 C   0  0  0  0  0  0  0  0  0  0  0  0
   -1.3646    3.0373    3.0329 C   0  0  0  0  0  0  0  0  0  0  0  0
   -1.6498    4.0940    2.9110 H   0  0  0  0  0  0  0  0  0  0  0  0
   -1.5825    2.1542    1.9591 C   0  0  0  0  0  0  0  0  0  0  0  0
   -0.3565   -1.1342    3.5440 C   0  0  0  0  0  0  0  0  0  0  0  0
   -1.2103   -1.7926    3.2814 H   0  0  0  0  0  0  0  0  0  0  0  0
   -0.0765   -1.3436    4.5933 H   0  0  0  0  0  0  0  0  0  0  0  0
    0.4977   -1.4118    2.8911 H   0  0  0  0  0  0  0  0  0  0  0  0
   -0.5517    3.5816    5.3726 C   0  0  0  0  0  0  0  0  0  0  0  0
   -0.8402    3.1564    6.3547 H   0  0  0  0  0  0  0  0  0  0  0  0
   -1.1055    4.5291    5.2284 H   0  0  0  0  0  0  0  0  0  0  0  0
    0.5285    3.8331    5.4348 H   0  0  0  0  0  0  0  0  0  0  0  0
   -2.2081    2.6414    0.6805 C   0  0  0  0  0  0  0  0  0  0  0  0
   -3.0409    1.9855    0.3540 H   0  0  0  0  0  0  0  0  0  0  0  0
   -1.4711    2.6631   -0.1518 H   0  0  0  0  0  0  0  0  0  0  0  0
   -2.6132    3.6625    0.8101 H   0  0  0  0  0  0  0  0  0  0  0  0
   -0.1952   -1.6106   -2.0037 C   0  0  0  0  0  0  0  0  0  0  0  0
    0.8152   -2.5912   -1.8784 C   0  0  0  0  0  0  0  0  0  0  0  0
    1.5352   -2.9383   -3.0366 C   0  0  0  0  0  0  0  0  0  0  0  0
    2.3309   -3.6951   -2.9543 H   0  0  0  0  0  0  0  0  0  0  0  0
    1.2596   -2.3604   -4.2868 C   0  0  0  0  0  0  0  0  0  0  0  0
    0.2049   -1.4332   -4.3781 C   0  0  0  0  0  0  0  0  0  0  0  0
   -0.0472   -0.9932   -5.3556 H   0  0  0  0  0  0  0  0  0  0  0  0
   -0.5428   -1.0477   -3.2546 C   0  0  0  0  0  0  0  0  0  0  0  0
    1.1161   -3.2534   -0.5615 C   0  0  0  0  0  0  0  0  0  0  0  0
    0.1930   -3.6025   -0.0555 H   0  0  0  0  0  0  0  0  0  0  0  0
    1.6211   -2.5536    0.1399 H   0  0  0  0  0  0  0  0  0  0  0  0
    1.7742   -4.1303   -0.7082 H   0  0  0  0  0  0  0  0  0  0  0  0
    2.0721   -2.7195   -5.5054 C   0  0  0  0  0  0  0  0  0  0  0  0
    2.6419   -3.6565   -5.3555 H   0  0  0  0  0  0  0  0  0  0  0  0
    2.8047   -1.9183   -5.7408 H   0  0  0  0  0  0  0  0  0  0  0  0
    1.4304   -2.8420   -6.4007 H   0  0  0  0  0  0  0  0  0  0  0  0
   -1.6709   -0.0598   -3.3738 C   0  0  0  0  0  0  0  0  0  0  0  0
   -2.6211   -0.4676   -2.9703 H   0  0  0  0  0  0  0  0  0  0  0  0
   -1.8425    0.2143   -4.4315 H   0  0  0  0  0  0  0  0  0  0  0  0
   -1.4303    0.8641   -2.8073 H   0  0  0  0  0  0  0  0  0  0  0  0
  2  4  1  0  0  0  0
  2  1  1  0  0  0  0
  2  3  1  0  0  0  0
  4  6  1  0  0  0  0
  4  5  1  0  0  0  0
  6  1  1  0  0  0  0
  6  8  1  0  0  0  0
  7  6  1  0  0  0  0
  9  4  1  0  0  0  0
 10  2  1  0  0  0  0
  1 11  1  0  0  0  0
  1 12  1  0  0  0  0
 13 15  1  0  0  0  0
 13 16  1  0  0  0  0
 13 22  1  0  0  0  0
 14 15  1  0  0  0  0
 14 19  1  0  0  0  0
 14 42  1  0  0  0  0
 16 17  1  0  0  0  0
 16 18  1  0  0  0  0
 16 19  1  0  0  0  0
 19 20  1  0  0  0  0
 19 21  1  0  0  0  0
 22 23  1  0  0  0  0
 22 29  2  0  0  0  0
 23 24  2  0  0  0  0
 23 30  1  0  0  0  0
 24 25  1  0  0  0  0
 24 26  1  0  0  0  0
 26 27  2  0  0  0  0
 26 34  1  0  0  0  0
 27 28  1  0  0  0  0
 27 29  1  0  0  0  0
 29 38  1  0  0  0  0
 30 31  1  0  0  0  0
 30 32  1  0  0  0  0
 30 33  1  0  0  0  0
 34 35  1  0  0  0  0
 34 36  1  0  0  0  0
 34 37  1  0  0  0  0
 38 39  1  0  0  0  0
 38 40  1  0  0  0  0
 38 41  1  0  0  0  0
 42 43  1  0  0  0  0
 42 49  2  0  0  0  0
 43 44  2  0  0  0  0
 43 50  1  0  0  0  0
 44 45  1  0  0  0  0
 44 46  1  0  0  0  0
 46 47  2  0  0  0  0
 46 54  1  0  0  0  0
 47 48  1  0  0  0  0
 47 49  1  0  0  0  0
 49 58  1  0  0  0  0
 50 51  1  0  0  0  0
 50 52  1  0  0  0  0
 50 53  1  0  0  0  0
 54 55  1  0  0  0  0
 54 56  1  0  0  0  0
 54 57  1  0  0  0  0
 58 59  1  0  0  0  0
 58 60  1  0  0  0  0
 58 61  1  0  0  0  0
  1 15  1  0  0  0  0
M  END
>  <DFT-ENERGY>
-2056.90474635

$$$$
