
  CDK     08132420563D

 43 47  0  0  0  0  0  0  0  0999 V2000
    0.3616   -0.8595   -3.0650 H   0  0  0  0  0  0  0  0  0  0  0  0
    1.5670   -0.6280   -3.1512 C   0  0  0  0  0  0  0  0  0  0  0  0
    1.4772   -0.6945   -4.2579 H   0  0  0  0  0  0  0  0  0  0  0  0
    1.6464    0.6648   -2.4036 C   0  0  0  0  0  0  0  0  0  0  0  0
    2.6014    0.9123   -1.9117 H   0  0  0  0  0  0  0  0  0  0  0  0
    1.1194    1.5192   -2.8635 H   0  0  0  0  0  0  0  0  0  0  0  0
    0.4852   -0.6402   -1.3091 Ru  0  0  0  0  0  0  0  0  0  0  0  0
    2.0360   -1.7444   -2.3201 C   0  0  0  0  0  0  0  0  0  0  0  0
    2.9769   -1.6441   -1.7651 H   0  0  0  0  0  0  0  0  0  0  0  0
    1.7642   -2.7664   -2.6372 H   0  0  0  0  0  0  0  0  0  0  0  0
    2.2515   -0.6869    0.3889 Cl  0  0  0  0  0  0  0  0  0  0  0  0
   -1.6116   -0.0879   -2.3239 Cl  0  0  0  0  0  0  0  0  0  0  0  0
   -0.3888   -0.0084    0.4185 C   0  0  0  0  0  0  0  0  0  0  0  0
   -0.9292    1.2165    0.6325 N   0  0  0  0  0  0  0  0  0  0  0  0
   -1.7754    1.2562    1.8448 C   0  0  0  0  0  0  0  0  0  0  0  0
   -1.2726    0.0297    2.6077 C   0  0  0  0  0  0  0  0  0  0  0  0
   -0.6707   -0.7744    1.5183 N   0  0  0  0  0  0  0  0  0  0  0  0
   -1.6148    2.2012    2.3952 H   0  0  0  0  0  0  0  0  0  0  0  0
   -2.8427    1.1790    1.5533 H   0  0  0  0  0  0  0  0  0  0  0  0
   -2.0800   -0.5375    3.1052 H   0  0  0  0  0  0  0  0  0  0  0  0
   -0.4976    0.2915    3.3535 H   0  0  0  0  0  0  0  0  0  0  0  0
   -0.8512    2.3179   -0.2517 C   0  0  0  0  0  0  0  0  0  0  0  0
   -0.7214    4.5575   -1.9608 C   0  0  0  0  0  0  0  0  0  0  0  0
   -2.0048    2.8442   -0.8615 C   0  0  0  0  0  0  0  0  0  0  0  0
    0.3682    2.9744   -0.5026 C   0  0  0  0  0  0  0  0  0  0  0  0
    0.4503    4.0733   -1.3623 C   0  0  0  0  0  0  0  0  0  0  0  0
   -1.9607    3.9516   -1.7083 C   0  0  0  0  0  0  0  0  0  0  0  0
    1.4294    4.5381   -1.5340 H   0  0  0  0  0  0  0  0  0  0  0  0
   -2.8911    4.3082   -2.1676 H   0  0  0  0  0  0  0  0  0  0  0  0
   -0.6687    5.4242   -2.6339 H   0  0  0  0  0  0  0  0  0  0  0  0
    1.4810    2.5231    0.1033 F   0  0  0  0  0  0  0  0  0  0  0  0
   -3.1906    2.2470   -0.6036 F   0  0  0  0  0  0  0  0  0  0  0  0
   -0.2358   -2.1014    1.7007 C   0  0  0  0  0  0  0  0  0  0  0  0
    0.6057   -4.7964    2.0372 C   0  0  0  0  0  0  0  0  0  0  0  0
   -0.3491   -3.0616    0.6766 C   0  0  0  0  0  0  0  0  0  0  0  0
    0.3275   -2.5632    2.9079 C   0  0  0  0  0  0  0  0  0  0  0  0
    0.7307   -3.8857    3.0940 C   0  0  0  0  0  0  0  0  0  0  0  0
    0.0661   -4.3825    0.8112 C   0  0  0  0  0  0  0  0  0  0  0  0
    1.1637   -4.1693    4.0617 H   0  0  0  0  0  0  0  0  0  0  0  0
   -0.0472   -5.0643   -0.0409 H   0  0  0  0  0  0  0  0  0  0  0  0
    0.9364   -5.8353    2.1675 H   0  0  0  0  0  0  0  0  0  0  0  0
    0.4940   -1.6856    3.9299 F   0  0  0  0  0  0  0  0  0  0  0  0
   -0.8890   -2.6620   -0.5127 F   0  0  0  0  0  0  0  0  0  0  0  0
  1  2  1  0  0  0  0
  1  7  1  0  0  0  0
  2  3  1  0  0  0  0
  2  4  1  0  0  0  0
  4  5  1  0  0  0  0
  6  4  1  0  0  0  0
  7  8  1  0  0  0  0
  7  4  1  0  0  0  0
  8  2  1  0  0  0  0
  8  9  1  0  0  0  0
 10  8  1  0  0  0  0
  7 11  1  0  0  0  0
  7 12  1  0  0  0  0
 13 14  1  0  0  0  0
 13 17  1  0  0  0  0
 14 15  1  0  0  0  0
 15 18  1  0  0  0  0
 15 19  1  0  0  0  0
 15 16  1  0  0  0  0
 16 20  1  0  0  0  0
 16 21  1  0  0  0  0
 16 17  1  0  0  0  0
 22 25  2  0  0  0  0
 22 24  1  0  0  0  0
 23 26  2  0  0  0  0
 23 27  1  0  0  0  0
 23 30  1  0  0  0  0
 24 27  2  0  0  0  0
 24 32  1  0  0  0  0
 25 26  1  0  0  0  0
 25 31  1  0  0  0  0
 26 28  1  0  0  0  0
 27 29  1  0  0  0  0
 14 22  1  0  0  0  0
 33 36  2  0  0  0  0
 33 35  1  0  0  0  0
 34 37  2  0  0  0  0
 34 38  1  0  0  0  0
 34 41  1  0  0  0  0
 35 38  2  0  0  0  0
 35 43  1  0  0  0  0
 36 37  1  0  0  0  0
 36 42  1  0  0  0  0
 37 39  1  0  0  0  0
 38 40  1  0  0  0  0
 17 33  1  0  0  0  0
  7 13  1  0  0  0  0
M  END
>  <DFT-ENERGY>
-2217.89029244

$$$$
