
  CDK     08132417343D

 49 52  0  0  0  0  0  0  0  0999 V2000
   -0.3732   -2.1969   -2.8094 C   0  0  0  0  0  0  0  0  0  0  0  0
    0.6896   -2.4934   -2.7647 H   0  0  0  0  0  0  0  0  0  0  0  0
   -0.8382   -2.5966   -3.7387 H   0  0  0  0  0  0  0  0  0  0  0  0
   -0.8997   -2.6769   -1.9607 H   0  0  0  0  0  0  0  0  0  0  0  0
   -0.5426   -0.6965   -2.7913 C   0  0  0  0  0  0  0  0  0  0  0  0
   -1.5829   -0.3261   -2.8610 H   0  0  0  0  0  0  0  0  0  0  0  0
    0.4443    0.2094   -3.2641 C   0  0  0  0  0  0  0  0  0  0  0  0
    1.4495   -0.2096   -3.4469 H   0  0  0  0  0  0  0  0  0  0  0  0
    0.0345    1.4448   -4.0319 C   0  0  0  0  0  0  0  0  0  0  0  0
    0.8542    2.1816   -4.1270 H   0  0  0  0  0  0  0  0  0  0  0  0
   -0.2632    1.1391   -5.0582 H   0  0  0  0  0  0  0  0  0  0  0  0
   -0.8388    1.9264   -3.5484 H   0  0  0  0  0  0  0  0  0  0  0  0
    1.2217    1.4445   -1.4596 C   0  0  0  0  0  0  0  0  0  0  0  0
    0.8037    2.4550   -1.6575 H   0  0  0  0  0  0  0  0  0  0  0  0
    2.3157    1.2935   -1.5913 H   0  0  0  0  0  0  0  0  0  0  0  0
    0.1609    0.0716   -0.8742 Ru  0  0  0  0  0  0  0  0  0  0  0  0
   -1.7682    1.5009   -0.9521 Cl  0  0  0  0  0  0  0  0  0  0  0  0
    2.0779   -1.3707   -0.8125 Cl  0  0  0  0  0  0  0  0  0  0  0  0
    0.0232    0.0371    1.0969 C   0  0  0  0  0  0  0  0  0  0  0  0
    0.5378    0.9155    2.0015 N   0  0  0  0  0  0  0  0  0  0  0  0
    0.0453    0.6432    3.3705 C   0  0  0  0  0  0  0  0  0  0  0  0
   -0.4565   -0.8030    3.2459 C   0  0  0  0  0  0  0  0  0  0  0  0
   -0.6577   -0.9184    1.7874 N   0  0  0  0  0  0  0  0  0  0  0  0
    0.8630    0.7540    4.1067 H   0  0  0  0  0  0  0  0  0  0  0  0
   -0.7733    1.3506    3.6194 H   0  0  0  0  0  0  0  0  0  0  0  0
   -1.4044   -0.9791    3.7879 H   0  0  0  0  0  0  0  0  0  0  0  0
    0.3022   -1.5423    3.5795 H   0  0  0  0  0  0  0  0  0  0  0  0
    1.0523    2.1818    1.6296 C   0  0  0  0  0  0  0  0  0  0  0  0
    2.0517    4.6771    0.7996 C   0  0  0  0  0  0  0  0  0  0  0  0
    0.2214    3.3153    1.5643 C   0  0  0  0  0  0  0  0  0  0  0  0
    2.4077    2.3434    1.2886 C   0  0  0  0  0  0  0  0  0  0  0  0
    2.9164    3.5746    0.8635 C   0  0  0  0  0  0  0  0  0  0  0  0
    0.6989    4.5609    1.1528 C   0  0  0  0  0  0  0  0  0  0  0  0
    3.9774    3.6490    0.5936 H   0  0  0  0  0  0  0  0  0  0  0  0
    0.0068    5.4110    1.1056 H   0  0  0  0  0  0  0  0  0  0  0  0
    2.4407    5.6493    0.4665 H   0  0  0  0  0  0  0  0  0  0  0  0
    3.2166    1.2710    1.3526 F   0  0  0  0  0  0  0  0  0  0  0  0
   -1.0720    3.1713    1.9164 F   0  0  0  0  0  0  0  0  0  0  0  0
   -1.0971   -2.1093    1.1547 C   0  0  0  0  0  0  0  0  0  0  0  0
   -1.9622   -4.4702   -0.1075 C   0  0  0  0  0  0  0  0  0  0  0  0
   -2.3810   -2.1971    0.5803 C   0  0  0  0  0  0  0  0  0  0  0  0
   -0.2749   -3.2527    1.1007 C   0  0  0  0  0  0  0  0  0  0  0  0
   -0.6846   -4.4293    0.4720 C   0  0  0  0  0  0  0  0  0  0  0  0
   -2.8189   -3.3608   -0.0609 C   0  0  0  0  0  0  0  0  0  0  0  0
   -0.0007   -5.2866    0.4416 H   0  0  0  0  0  0  0  0  0  0  0  0
   -3.8224   -3.3795   -0.5045 H   0  0  0  0  0  0  0  0  0  0  0  0
   -2.2963   -5.3883   -0.6104 H   0  0  0  0  0  0  0  0  0  0  0  0
    0.9309   -3.1884    1.6948 F   0  0  0  0  0  0  0  0  0  0  0  0
   -3.1927   -1.1298    0.6534 F   0  0  0  0  0  0  0  0  0  0  0  0
  1  2  1  0  0  0  0
  1  5  1  0  0  0  0
  3  1  1  0  0  0  0
  4  1  1  0  0  0  0
  5  6  1  0  0  0  0
  5 16  1  0  0  0  0
  5  7  1  0  0  0  0
  7  9  1  0  0  0  0
  7  8  1  0  0  0  0
  9 10  1  0  0  0  0
 11  9  1  0  0  0  0
 12  9  1  0  0  0  0
 13 14  1  0  0  0  0
 13 15  1  0  0  0  0
 13  7  1  0  0  0  0
 16 13  1  0  0  0  0
 16 17  1  0  0  0  0
 16 18  1  0  0  0  0
 19 20  1  0  0  0  0
 19 23  1  0  0  0  0
 20 21  1  0  0  0  0
 21 24  1  0  0  0  0
 21 25  1  0  0  0  0
 21 22  1  0  0  0  0
 22 26  1  0  0  0  0
 22 27  1  0  0  0  0
 22 23  1  0  0  0  0
 28 31  2  0  0  0  0
 28 30  1  0  0  0  0
 29 32  2  0  0  0  0
 29 33  1  0  0  0  0
 29 36  1  0  0  0  0
 30 33  2  0  0  0  0
 30 38  1  0  0  0  0
 31 32  1  0  0  0  0
 31 37  1  0  0  0  0
 32 34  1  0  0  0  0
 33 35  1  0  0  0  0
 20 28  1  0  0  0  0
 39 42  2  0  0  0  0
 39 41  1  0  0  0  0
 40 43  2  0  0  0  0
 40 44  1  0  0  0  0
 40 47  1  0  0  0  0
 41 44  2  0  0  0  0
 41 49  1  0  0  0  0
 42 43  1  0  0  0  0
 42 48  1  0  0  0  0
 43 45  1  0  0  0  0
 44 46  1  0  0  0  0
 23 39  1  0  0  0  0
 16 19  1  0  0  0  0
M  END
>  <DFT-ENERGY>
-2296.43254966

$$$$
