
  CDK     08132423553D

 43 46  0  0  0  0  0  0  0  0999 V2000
    1.1293    0.6690   -0.1180 Ru  0  0  0  0  0  0  0  0  0  0  0  0
    2.1294    1.5071   -1.5773 C   0  0  0  0  0  0  0  0  0  0  0  0
    1.6536    2.4069   -2.0066 H   0  0  0  0  0  0  0  0  0  0  0  0
    3.0437    1.8259   -0.3258 C   0  0  0  0  0  0  0  0  0  0  0  0
    3.0890    2.9272   -0.2471 H   0  0  0  0  0  0  0  0  0  0  0  0
    2.5421    1.3033    1.0805 C   0  0  0  0  0  0  0  0  0  0  0  0
    3.1816    0.5058    1.4995 H   0  0  0  0  0  0  0  0  0  0  0  0
    2.2526    2.1173    1.7690 H   0  0  0  0  0  0  0  0  0  0  0  0
    4.0146    1.3339   -0.5159 H   0  0  0  0  0  0  0  0  0  0  0  0
    2.5996    0.8080   -2.2920 H   0  0  0  0  0  0  0  0  0  0  0  0
   -0.0428    2.7151    0.2619 Cl  0  0  0  0  0  0  0  0  0  0  0  0
    2.3371   -1.3524   -0.5009 Cl  0  0  0  0  0  0  0  0  0  0  0  0
   -0.5597   -0.3354    0.0600 C   0  0  0  0  0  0  0  0  0  0  0  0
   -1.2303   -0.5556    1.2159 N   0  0  0  0  0  0  0  0  0  0  0  0
   -2.5319   -1.2193    0.9821 C   0  0  0  0  0  0  0  0  0  0  0  0
   -2.3983   -1.6967   -0.4766 C   0  0  0  0  0  0  0  0  0  0  0  0
   -1.2410   -0.9114   -0.9592 N   0  0  0  0  0  0  0  0  0  0  0  0
   -2.6746   -2.0531    1.6950 H   0  0  0  0  0  0  0  0  0  0  0  0
   -3.3503   -0.4829    1.1128 H   0  0  0  0  0  0  0  0  0  0  0  0
   -3.2961   -1.4759   -1.0841 H   0  0  0  0  0  0  0  0  0  0  0  0
   -2.1658   -2.7785   -0.5483 H   0  0  0  0  0  0  0  0  0  0  0  0
   -0.8855    0.0966    2.4266 C   0  0  0  0  0  0  0  0  0  0  0  0
   -0.1450    1.4500    4.7804 C   0  0  0  0  0  0  0  0  0  0  0  0
   -1.6254    1.1950    2.9018 C   0  0  0  0  0  0  0  0  0  0  0  0
    0.2354   -0.3068    3.1758 C   0  0  0  0  0  0  0  0  0  0  0  0
    0.6228    0.3631    4.3395 C   0  0  0  0  0  0  0  0  0  0  0  0
   -1.2784    1.8725    4.0699 C   0  0  0  0  0  0  0  0  0  0  0  0
    1.5127    0.0184    4.8812 H   0  0  0  0  0  0  0  0  0  0  0  0
   -1.8813    2.7318    4.3884 H   0  0  0  0  0  0  0  0  0  0  0  0
    0.1488    1.9836    5.6947 H   0  0  0  0  0  0  0  0  0  0  0  0
    0.9602   -1.3536    2.7343 F   0  0  0  0  0  0  0  0  0  0  0  0
   -2.7013    1.5896    2.1875 F   0  0  0  0  0  0  0  0  0  0  0  0
   -0.6886   -1.0412   -2.2587 C   0  0  0  0  0  0  0  0  0  0  0  0
    0.4963   -1.2754   -4.8001 C   0  0  0  0  0  0  0  0  0  0  0  0
   -0.6354    0.0547   -3.1399 C   0  0  0  0  0  0  0  0  0  0  0  0
   -0.1363   -2.2584   -2.6982 C   0  0  0  0  0  0  0  0  0  0  0  0
    0.4482   -2.3953   -3.9565 C   0  0  0  0  0  0  0  0  0  0  0  0
   -0.0392   -0.0431   -4.4001 C   0  0  0  0  0  0  0  0  0  0  0  0
    0.8779   -3.3628   -4.2441 H   0  0  0  0  0  0  0  0  0  0  0  0
   -0.0103    0.8436   -5.0458 H   0  0  0  0  0  0  0  0  0  0  0  0
    0.9667   -1.3646   -5.7890 H   0  0  0  0  0  0  0  0  0  0  0  0
   -0.1837   -3.3138   -1.8574 F   0  0  0  0  0  0  0  0  0  0  0  0
   -1.1549    1.2303   -2.7356 F   0  0  0  0  0  0  0  0  0  0  0  0
  2  4  1  0  0  0  0
  2  1  1  0  0  0  0
  2  3  1  0  0  0  0
  4  6  1  0  0  0  0
  4  5  1  0  0  0  0
  6  1  1  0  0  0  0
  6  8  1  0  0  0  0
  7  6  1  0  0  0  0
  9  4  1  0  0  0  0
 10  2  1  0  0  0  0
  1 11  1  0  0  0  0
  1 12  1  0  0  0  0
 13 14  1  0  0  0  0
 13 17  1  0  0  0  0
 14 15  1  0  0  0  0
 15 18  1  0  0  0  0
 15 19  1  0  0  0  0
 15 16  1  0  0  0  0
 16 20  1  0  0  0  0
 16 21  1  0  0  0  0
 16 17  1  0  0  0  0
 22 25  2  0  0  0  0
 22 24  1  0  0  0  0
 23 26  2  0  0  0  0
 23 27  1  0  0  0  0
 23 30  1  0  0  0  0
 24 27  2  0  0  0  0
 24 32  1  0  0  0  0
 25 26  1  0  0  0  0
 25 31  1  0  0  0  0
 26 28  1  0  0  0  0
 27 29  1  0  0  0  0
 14 22  1  0  0  0  0
 33 36  2  0  0  0  0
 33 35  1  0  0  0  0
 34 37  2  0  0  0  0
 34 38  1  0  0  0  0
 34 41  1  0  0  0  0
 35 38  2  0  0  0  0
 35 43  1  0  0  0  0
 36 37  1  0  0  0  0
 36 42  1  0  0  0  0
 37 39  1  0  0  0  0
 38 40  1  0  0  0  0
 17 33  1  0  0  0  0
  1 13  1  0  0  0  0
M  END
>  <DFT-ENERGY>
-2217.92427064

$$$$
