
  CDK     07312419123D

 55 58  0  0  0  0  0  0  0  0999 V2000
    2.1846    0.3948   -3.0228 C   0  0  0  0  0  0  0  0  0  0  0  0
    2.5036   -0.6620   -2.9894 H   0  0  0  0  0  0  0  0  0  0  0  0
    2.5834    0.8754   -3.9444 H   0  0  0  0  0  0  0  0  0  0  0  0
    2.6448    0.9232   -2.1645 H   0  0  0  0  0  0  0  0  0  0  0  0
    0.6804    0.5296   -3.0190 C   0  0  0  0  0  0  0  0  0  0  0  0
    0.2876    1.5615   -3.0921 H   0  0  0  0  0  0  0  0  0  0  0  0
   -0.1965   -0.4803   -3.4990 C   0  0  0  0  0  0  0  0  0  0  0  0
    0.2539   -1.4700   -3.6914 H   0  0  0  0  0  0  0  0  0  0  0  0
   -1.4399   -0.1067   -4.2729 C   0  0  0  0  0  0  0  0  0  0  0  0
   -2.1519   -0.9476   -4.3711 H   0  0  0  0  0  0  0  0  0  0  0  0
   -1.1390    0.1998   -5.2980 H   0  0  0  0  0  0  0  0  0  0  0  0
   -1.9517    0.7510   -3.7933 H   0  0  0  0  0  0  0  0  0  0  0  0
   -1.4054   -1.3187   -1.7042 C   0  0  0  0  0  0  0  0  0  0  0  0
   -2.4313   -0.9402   -1.9011 H   0  0  0  0  0  0  0  0  0  0  0  0
   -1.2184   -2.4066   -1.8359 H   0  0  0  0  0  0  0  0  0  0  0  0
   -0.0802   -0.2002   -1.1144 Ru  0  0  0  0  0  0  0  0  0  0  0  0
   -1.6111    1.6667   -1.1675 Cl  0  0  0  0  0  0  0  0  0  0  0  0
    1.4239   -2.0832   -0.9894 Cl  0  0  0  0  0  0  0  0  0  0  0  0
   -0.0084   -0.1208    0.8616 C   0  0  0  0  0  0  0  0  0  0  0  0
   -0.8626   -0.6430    1.7756 N   0  0  0  0  0  0  0  0  0  0  0  0
   -0.3102   -0.5299    3.1424 C   0  0  0  0  0  0  0  0  0  0  0  0
    0.7555    0.5635    2.9677 C   0  0  0  0  0  0  0  0  0  0  0  0
    1.0107    0.4908    1.5171 N   0  0  0  0  0  0  0  0  0  0  0  0
   -1.1005   -0.2568    3.8672 H   0  0  0  0  0  0  0  0  0  0  0  0
    1.6761    0.3695    3.5501 H   0  0  0  0  0  0  0  0  0  0  0  0
    1.9527    1.3159    0.8217 C   0  0  0  0  0  0  0  0  0  0  0  0
    3.7661    2.9288   -0.5543 C   0  0  0  0  0  0  0  0  0  0  0  0
    3.3120    0.9230    0.7828 C   0  0  0  0  0  0  0  0  0  0  0  0
    1.4977    2.4755    0.1687 C   0  0  0  0  0  0  0  0  0  0  0  0
    2.4099    3.2825   -0.5278 C   0  0  0  0  0  0  0  0  0  0  0  0
    4.2052    1.7612    0.0908 C   0  0  0  0  0  0  0  0  0  0  0  0
    2.0547    4.1840   -1.0463 H   0  0  0  0  0  0  0  0  0  0  0  0
    5.2664    1.4749    0.0407 H   0  0  0  0  0  0  0  0  0  0  0  0
   -1.8916   -1.5875    1.4562 C   0  0  0  0  0  0  0  0  0  0  0  0
   -3.8782   -3.4378    0.8312 C   0  0  0  0  0  0  0  0  0  0  0  0
   -1.5349   -2.9083    1.1407 C   0  0  0  0  0  0  0  0  0  0  0  0
   -3.2359   -1.1545    1.4517 C   0  0  0  0  0  0  0  0  0  0  0  0
   -4.2192   -2.1117    1.1361 C   0  0  0  0  0  0  0  0  0  0  0  0
   -2.5337   -3.8397    0.8265 C   0  0  0  0  0  0  0  0  0  0  0  0
   -5.2744   -1.7999    1.1190 H   0  0  0  0  0  0  0  0  0  0  0  0
   -2.2597   -4.8724    0.5688 H   0  0  0  0  0  0  0  0  0  0  0  0
   -3.5786    0.2874    1.7066 C   0  0  0  0  0  0  0  0  0  0  0  0
   -4.6740    0.4413    1.7091 H   0  0  0  0  0  0  0  0  0  0  0  0
   -3.1275    0.9285    0.9174 H   0  0  0  0  0  0  0  0  0  0  0  0
   -3.1788    0.6427    2.6789 H   0  0  0  0  0  0  0  0  0  0  0  0
    3.7529   -0.3790    1.3912 C   0  0  0  0  0  0  0  0  0  0  0  0
    3.5694   -0.4154    2.4854 H   0  0  0  0  0  0  0  0  0  0  0  0
    4.8330   -0.5488    1.2244 H   0  0  0  0  0  0  0  0  0  0  0  0
    3.1824   -1.2132    0.9285 H   0  0  0  0  0  0  0  0  0  0  0  0
    0.3714    1.5730    3.2340 H   0  0  0  0  0  0  0  0  0  0  0  0
    0.1326   -1.5031    3.4495 H   0  0  0  0  0  0  0  0  0  0  0  0
   -0.4689   -3.1748    1.0983 H   0  0  0  0  0  0  0  0  0  0  0  0
   -4.6699   -4.1606    0.5856 H   0  0  0  0  0  0  0  0  0  0  0  0
    4.4901    3.5572   -1.0934 H   0  0  0  0  0  0  0  0  0  0  0  0
    0.4256    2.7185    0.1916 H   0  0  0  0  0  0  0  0  0  0  0  0
  1  2  1  0  0  0  0
  1  5  1  0  0  0  0
  3  1  1  0  0  0  0
  4  1  1  0  0  0  0
  5  6  1  0  0  0  0
  5 16  1  0  0  0  0
  5  7  1  0  0  0  0
  7  9  1  0  0  0  0
  7  8  1  0  0  0  0
  9 10  1  0  0  0  0
 11  9  1  0  0  0  0
 12  9  1  0  0  0  0
 13 14  1  0  0  0  0
 13 15  1  0  0  0  0
 13  7  1  0  0  0  0
 16 13  1  0  0  0  0
 16 17  1  0  0  0  0
 16 18  1  0  0  0  0
 19 20  1  0  0  0  0
 19 23  1  0  0  0  0
 20 21  1  0  0  0  0
 21 24  1  0  0  0  0
 21 22  1  0  0  0  0
 22 25  1  0  0  0  0
 22 23  1  0  0  0  0
 26 29  2  0  0  0  0
 29 30  1  0  0  0  0
 27 30  2  0  0  0  0
 27 31  1  0  0  0  0
 28 31  2  0  0  0  0
 26 28  1  0  0  0  0
 30 32  1  0  0  0  0
 31 33  1  0  0  0  0
 23 26  1  0  0  0  0
 34 37  2  0  0  0  0
 37 38  1  0  0  0  0
 35 38  2  0  0  0  0
 35 39  1  0  0  0  0
 36 39  2  0  0  0  0
 34 36  1  0  0  0  0
 38 40  1  0  0  0  0
 39 41  1  0  0  0  0
 20 34  1  0  0  0  0
 42 43  1  0  0  0  0
 42 44  1  0  0  0  0
 42 45  1  0  0  0  0
 37 42  1  0  0  0  0
 46 47  1  0  0  0  0
 46 48  1  0  0  0  0
 46 49  1  0  0  0  0
 28 46  1  0  0  0  0
 22 50  1  0  0  0  0
 21 51  1  0  0  0  0
 36 52  1  0  0  0  0
 35 53  1  0  0  0  0
 27 54  1  0  0  0  0
 29 55  1  0  0  0  0
 16 19  1  0  0  0  0
M  END
>  <DFT-ENERGY>
-1978.35238547

$$$$
