orthoTolyl_A1
  CDK     07312414023D

 63 67  0  0  0  0  0  0  0  0999 V2000
    0.3630    0.1284   -0.4191 Ru  0  0  0  0  0  0  0  0  0  0  0  0
    2.1408    0.1284   -1.8083 O   0  0  0  0  0  0  0  0  0  0  0  0
    1.5732   -0.8049    0.5850 C   0  0  0  0  0  0  0  0  0  0  0  0
    1.3404   -1.0978    1.6077 H   0  0  0  0  0  0  0  0  0  0  0  0
    2.3763    0.9036   -3.0341 C   0  0  0  0  0  0  0  0  0  0  0  0
    2.7883    0.2049   -3.7926 H   0  0  0  0  0  0  0  0  0  0  0  0
    0.9546    1.3423   -3.3518 C   0  0  0  0  0  0  0  0  0  0  0  0
    0.8863    1.8504   -4.3168 H   0  0  0  0  0  0  0  0  0  0  0  0
    0.5643    2.0345   -2.5761 H   0  0  0  0  0  0  0  0  0  0  0  0
    0.2706    0.4695   -3.3688 H   0  0  0  0  0  0  0  0  0  0  0  0
    3.3119    2.0504   -2.6975 C   0  0  0  0  0  0  0  0  0  0  0  0
    3.3049    2.8238   -3.4721 H   0  0  0  0  0  0  0  0  0  0  0  0
    4.3460    1.7244   -2.5468 H   0  0  0  0  0  0  0  0  0  0  0  0
    2.9899    2.5333   -1.7528 H   0  0  0  0  0  0  0  0  0  0  0  0
    3.1330   -0.6700   -1.3033 C   0  0  0  0  0  0  0  0  0  0  0  0
    4.3021   -1.0187   -1.9563 C   0  0  0  0  0  0  0  0  0  0  0  0
    4.5210   -0.6683   -2.9623 H   0  0  0  0  0  0  0  0  0  0  0  0
    5.2033   -1.8498   -1.2988 C   0  0  0  0  0  0  0  0  0  0  0  0
    6.1259   -2.1375   -1.8076 H   0  0  0  0  0  0  0  0  0  0  0  0
    4.9533   -2.3214   -0.0135 C   0  0  0  0  0  0  0  0  0  0  0  0
    5.6782   -2.9660    0.4809 H   0  0  0  0  0  0  0  0  0  0  0  0
    3.7836   -1.9611    0.6281 C   0  0  0  0  0  0  0  0  0  0  0  0
    3.5904   -2.3157    1.6394 H   0  0  0  0  0  0  0  0  0  0  0  0
    2.8481   -1.1457   -0.0113 C   0  0  0  0  0  0  0  0  0  0  0  0
    0.9650    2.3292    0.1434 Cl  0  0  0  0  0  0  0  0  0  0  0  0
   -0.4636   -1.5848   -1.7841 Cl  0  0  0  0  0  0  0  0  0  0  0  0
   -1.1465    0.2287    0.8293 C   0  0  0  0  0  0  0  0  0  0  0  0
   -1.4853   -0.3255    2.0604 N   0  0  0  0  0  0  0  0  0  0  0  0
   -2.8258    0.1339    2.5786 C   0  0  0  0  0  0  0  0  0  0  0  0
   -3.3244    1.1007    1.4878 C   0  0  0  0  0  0  0  0  0  0  0  0
   -2.2036    1.0865    0.4893 N   0  0  0  0  0  0  0  0  0  0  0  0
   -3.4978   -0.7375    2.7131 H   0  0  0  0  0  0  0  0  0  0  0  0
   -3.4883    2.1333    1.8725 H   0  0  0  0  0  0  0  0  0  0  0  0
   -2.2845    1.9187   -0.6866 C   0  0  0  0  0  0  0  0  0  0  0  0
   -2.6046    3.4376   -3.0106 C   0  0  0  0  0  0  0  0  0  0  0  0
   -2.3524    3.3314   -0.5878 C   0  0  0  0  0  0  0  0  0  0  0  0
   -2.3355    1.2840   -1.9394 C   0  0  0  0  0  0  0  0  0  0  0  0
   -2.4941    2.0475   -3.0986 C   0  0  0  0  0  0  0  0  0  0  0  0
   -2.5278    4.0707   -1.7673 C   0  0  0  0  0  0  0  0  0  0  0  0
   -2.5372    1.5520   -4.0675 H   0  0  0  0  0  0  0  0  0  0  0  0
   -2.5907    5.1571   -1.7132 H   0  0  0  0  0  0  0  0  0  0  0  0
   -0.7595   -1.2507    2.8962 C   0  0  0  0  0  0  0  0  0  0  0  0
    0.5329   -2.9953    4.6517 C   0  0  0  0  0  0  0  0  0  0  0  0
   -0.1525   -0.7515    4.0625 C   0  0  0  0  0  0  0  0  0  0  0  0
   -0.7152   -2.6314    2.5903 C   0  0  0  0  0  0  0  0  0  0  0  0
   -0.0599   -3.4894    3.4887 C   0  0  0  0  0  0  0  0  0  0  0  0
    0.4919   -1.6264    4.9372 C   0  0  0  0  0  0  0  0  0  0  0  0
   -0.0154   -4.5567    3.2713 H   0  0  0  0  0  0  0  0  0  0  0  0
    0.9643   -1.2416    5.8397 H   0  0  0  0  0  0  0  0  0  0  0  0
   -1.3160   -3.1599    1.3367 C   0  0  0  0  0  0  0  0  0  0  0  0
   -1.2613   -4.2518    1.2522 H   0  0  0  0  0  0  0  0  0  0  0  0
   -0.7878   -2.7476    0.4485 H   0  0  0  0  0  0  0  0  0  0  0  0
   -2.3702   -2.8724    1.2231 H   0  0  0  0  0  0  0  0  0  0  0  0
   -2.1913    4.0343    0.7173 C   0  0  0  0  0  0  0  0  0  0  0  0
   -2.8959    3.6709    1.4807 H   0  0  0  0  0  0  0  0  0  0  0  0
   -2.3171    5.1206    0.6379 H   0  0  0  0  0  0  0  0  0  0  0  0
   -1.1676    3.8554    1.1058 H   0  0  0  0  0  0  0  0  0  0  0  0
   -4.2652    0.7598    1.0108 H   0  0  0  0  0  0  0  0  0  0  0  0
   -2.7070    0.6290    3.5629 H   0  0  0  0  0  0  0  0  0  0  0  0
   -0.1780    0.3178    4.2743 H   0  0  0  0  0  0  0  0  0  0  0  0
    1.0322   -3.6786    5.3380 H   0  0  0  0  0  0  0  0  0  0  0  0
   -2.7434    4.0315   -3.9127 H   0  0  0  0  0  0  0  0  0  0  0  0
   -2.2630    0.1906   -2.0062 H   0  0  0  0  0  0  0  0  0  0  0  0
  2  1  1  0  0  0  0
  3  1  2  0  0  0  0
  4  3  1  0  0  0  0
  5  2  1  0  0  0  0
  6  5  1  0  0  0  0
  7  5  1  0  0  0  0
  8  7  1  0  0  0  0
  9  7  1  0  0  0  0
 10  7  1  0  0  0  0
 11  5  1  0  0  0  0
 12 11  1  0  0  0  0
 13 11  1  0  0  0  0
 14 11  1  0  0  0  0
 15  2  1  0  0  0  0
 15 24  1  0  0  0  0
 16 15  2  0  0  0  0
 17 16  1  0  0  0  0
 18 16  1  0  0  0  0
 19 18  1  0  0  0  0
 20 18  2  0  0  0  0
 21 20  1  0  0  0  0
 22 20  1  0  0  0  0
 22 24  2  0  0  0  0
 23 22  1  0  0  0  0
 24  3  1  0  0  0  0
  1 25  1  0  0  0  0
  1 26  1  0  0  0  0
 27 28  1  0  0  0  0
 27 31  1  0  0  0  0
 28 29  1  0  0  0  0
 29 32  1  0  0  0  0
 29 30  1  0  0  0  0
 30 33  1  0  0  0  0
 30 31  1  0  0  0  0
 34 37  2  0  0  0  0
 37 38  1  0  0  0  0
 35 38  2  0  0  0  0
 35 39  1  0  0  0  0
 36 39  2  0  0  0  0
 34 36  1  0  0  0  0
 38 40  1  0  0  0  0
 39 41  1  0  0  0  0
 31 34  1  0  0  0  0
 42 45  2  0  0  0  0
 45 46  1  0  0  0  0
 43 46  2  0  0  0  0
 43 47  1  0  0  0  0
 44 47  2  0  0  0  0
 42 44  1  0  0  0  0
 46 48  1  0  0  0  0
 47 49  1  0  0  0  0
 28 42  1  0  0  0  0
 50 51  1  0  0  0  0
 50 52  1  0  0  0  0
 50 53  1  0  0  0  0
 45 50  1  0  0  0  0
 54 55  1  0  0  0  0
 54 56  1  0  0  0  0
 54 57  1  0  0  0  0
 36 54  1  0  0  0  0
 30 58  1  0  0  0  0
 29 59  1  0  0  0  0
 44 60  1  0  0  0  0
 43 61  1  0  0  0  0
 35 62  1  0  0  0  0
 37 63  1  0  0  0  0
  1 27  1  0  0  0  0
M  END
> <FrozenCore-PM6_ENERGY>
158.444

> <RMSD_CONF_CG-CS>
0.331128

> <RMSD_CONF_GO-CS>
0.000000

> <UID>


> <DESCRIPTOR_DEFINITION_1>
desc1=( echo "1 * ( e( $hartree_to_kcalmol * ( ( $freeEnergyZ - $freeEnergyD ) - ( $freeEnergyX + 2*$G_Ethene - $freeEnergyD - 2*$G_Propene ) - $DDG_reference_HGII ) / $kT ) ) " | bc -l )

> <DESCRIPTOR_DEFINITION_2>
desc1=( echo "1 * ( e( $hartree_to_kcalmol * ( ( $freeEnergyZ - $freeEnergyD ) - ( $freeEnergyX + 2*$G_Ethene - $freeEnergyD - 2*$G_Propene ) - $DDG_reference_HGII ) / $kT ) ) " | bc -l )

> <DESCRIPTOR_DEFINITION_3>
desc1=( echo "1 * ( e( $hartree_to_kcalmol * ( ( $freeEnergyZ - $freeEnergyD ) - ( $freeEnergyX + 2*$G_Ethene - $freeEnergyD - 2*$G_Propene ) - $DDG_reference_HGII ) / $kT ) ) " | bc -l )

> <WEIGHT_DEFINITION_1>
w1=$( echo "1 / ( 1 + e( $hartree_to_kcalmol * ( ( ( $freeEnergyX + 2*$G_Ethene - $freeEnergyD - 2*$G_Propene ) ) - ( $DG_referenceProductionBarrier + $magnitude4 ) ) / $kT ) )" | bc -l )

> <WEIGHT_DEFINITION_2>
w1=$( echo "1 / ( 1 + e( $hartree_to_kcalmol * ( ( ( $freeEnergyX + 2*$G_Ethene - $freeEnergyD - 2*$G_Propene ) ) - ( $DG_referenceProductionBarrier + $magnitude4 ) ) / $kT ) )" | bc -l )

> <WEIGHT_DEFINITION_3>
w1=$( echo "1 / ( 1 + e( $hartree_to_kcalmol * ( ( ( $freeEnergyX + 2*$G_Ethene - $freeEnergyD - 2*$G_Propene ) ) - ( $DG_referenceProductionBarrier + $magnitude4 ) ) / $kT ) )" | bc -l )

> <WEIGHT_DEFINITION_4>
w1=$( echo "1 / ( 1 + e( $hartree_to_kcalmol * ( ( ( $freeEnergyX + 2*$G_Ethene - $freeEnergyD - 2*$G_Propene ) ) - ( $DG_referenceProductionBarrier + $magnitude4 ) ) / $kT ) )" | bc -l )

> <CALCULATION_OF_OVERALL_FITNESS>
fitness=$( echo "( $desc1 + $desc2 + $desc3 ) * ( $w1 * $w2 * $w3 * $w4 )" | bc -l )

> <freeEnergyA>
-2245.07769021

> <freeEnergyF>
-2245.05994312

> <freeEnergyE>
-2245.07769021

> <freeEnergyC>
-1899.82225664

> <freeEnergyL>
-767.216863167

> <freeEnergyX>
-1978.35238559

> <freeEnergyZ>
-1899.80157014

> <freeEnergyD>
-1899.84286641

> <G_Propene>
-117.738020895

> <G_Ethene>
-78.4716324751

> <G_HoveydaProd>
-502.204109499

> <G_SIMes>
-924.27249048

> <G_HG_RuCl2_SIMes>
-2402.13728523

> <DG_referenceProductionBarrier>
0.01468968

> <DG_referencePrecursorStabilityHII>
-0.0052201621

> <DG_referencePrecursorStabilityHI>
0.0117775312

> <DDG_referencePrecursorStability>
.0169976933

> <DG_referenceSynt>
0.0226072217

> <hartree_to_kcalmol>
627.49467516

> <boltzmann_constant>
0.0000000000000000000000138066

> <avogadro_number>
602214000000000000000000

> <jmol_to_kcalmol>
0.00023901

> <temp>
313.15

> <kT>
.6223089948281258706000000000

> <magnitude1>
1.43290809

> <magnitude2>
2.86581618

> <magnitude3>
4.29872427

> <magnitude4>
5.73163236

> <DFT_IDENTIFIER>
1722464300887

> <DFT_MACHINE>
158.36.42.38

> <XTB_IDENTIFIER>
NREC

> <XTB_MACHINE>
NREC

> <DESCRIPTOR_1>
.01458707405889917199

> <DESCRIPTOR_2>
11.319131847786862632

> <DESCRIPTOR_3>
0.0000000001

> <WEIGHT_1>
.99972972879072372983

> <WEIGHT_2>
.99999999563433210500

> <WEIGHT_3>
.99999999931211699472

> <WEIGHT_4>
.99999830841367789310

> <FITNESS>
11.33063651998490443778

> <NAME>
H10

$$$$
