
  CDK     07312421343D

 49 53  0  0  0  0  0  0  0  0999 V2000
    0.3667   -0.5527   -3.3418 H   0  0  0  0  0  0  0  0  0  0  0  0
    1.5708   -0.3000   -3.3611 C   0  0  0  0  0  0  0  0  0  0  0  0
    1.4705   -0.1528   -4.4611 H   0  0  0  0  0  0  0  0  0  0  0  0
    1.6700    0.8208   -2.3840 C   0  0  0  0  0  0  0  0  0  0  0  0
    2.6322    0.9319   -1.8560 H   0  0  0  0  0  0  0  0  0  0  0  0
    1.1833    1.7687   -2.6686 H   0  0  0  0  0  0  0  0  0  0  0  0
    0.4517   -0.6553   -1.5730 Ru  0  0  0  0  0  0  0  0  0  0  0  0
    2.0516   -1.5460   -2.7714 C   0  0  0  0  0  0  0  0  0  0  0  0
    2.9655   -1.5321   -2.1653 H   0  0  0  0  0  0  0  0  0  0  0  0
    1.8224   -2.4938   -3.2868 H   0  0  0  0  0  0  0  0  0  0  0  0
    2.0812   -1.2184    0.1516 Cl  0  0  0  0  0  0  0  0  0  0  0  0
   -1.6015    0.1913   -2.5267 Cl  0  0  0  0  0  0  0  0  0  0  0  0
   -0.3919   -0.0646    0.2073 C   0  0  0  0  0  0  0  0  0  0  0  0
   -0.6084    1.2337    0.5139 N   0  0  0  0  0  0  0  0  0  0  0  0
   -1.4414    1.3912    1.7205 C   0  0  0  0  0  0  0  0  0  0  0  0
   -1.2598    0.0304    2.3811 C   0  0  0  0  0  0  0  0  0  0  0  0
   -0.9036   -0.8300    1.2304 N   0  0  0  0  0  0  0  0  0  0  0  0
   -1.0793    2.2332    2.3384 H   0  0  0  0  0  0  0  0  0  0  0  0
   -2.1652   -0.3519    2.8860 H   0  0  0  0  0  0  0  0  0  0  0  0
   -0.7010   -2.2249    1.4481 C   0  0  0  0  0  0  0  0  0  0  0  0
   -0.3475   -4.9687    2.0088 C   0  0  0  0  0  0  0  0  0  0  0  0
   -0.8511   -3.1741    0.4067 C   0  0  0  0  0  0  0  0  0  0  0  0
   -0.4019   -2.6639    2.7531 C   0  0  0  0  0  0  0  0  0  0  0  0
   -0.2244   -4.0236    3.0340 C   0  0  0  0  0  0  0  0  0  0  0  0
   -0.6591   -4.5325    0.7154 C   0  0  0  0  0  0  0  0  0  0  0  0
    0.0161   -4.3366    4.0597 H   0  0  0  0  0  0  0  0  0  0  0  0
   -0.7738   -5.2674   -0.0958 H   0  0  0  0  0  0  0  0  0  0  0  0
   -0.1572    2.3926   -0.2030 C   0  0  0  0  0  0  0  0  0  0  0  0
    0.6775    4.7073   -1.5190 C   0  0  0  0  0  0  0  0  0  0  0  0
   -1.0261    3.0372   -1.0949 C   0  0  0  0  0  0  0  0  0  0  0  0
    1.1274    2.9086    0.0866 C   0  0  0  0  0  0  0  0  0  0  0  0
    1.5256    4.0705   -0.6017 C   0  0  0  0  0  0  0  0  0  0  0  0
   -0.6058    4.1962   -1.7612 C   0  0  0  0  0  0  0  0  0  0  0  0
    2.5271    4.4817   -0.4044 H   0  0  0  0  0  0  0  0  0  0  0  0
   -1.2794    4.6911   -2.4748 H   0  0  0  0  0  0  0  0  0  0  0  0
    2.0318    2.2394    1.0835 C   0  0  0  0  0  0  0  0  0  0  0  0
    2.9792    2.7996    1.1942 H   0  0  0  0  0  0  0  0  0  0  0  0
    2.2627    1.1946    0.7836 H   0  0  0  0  0  0  0  0  0  0  0  0
    1.5557    2.1786    2.0854 H   0  0  0  0  0  0  0  0  0  0  0  0
   -1.1928   -2.7719   -0.9907 C   0  0  0  0  0  0  0  0  0  0  0  0
   -1.9444   -1.9662   -1.0570 H   0  0  0  0  0  0  0  0  0  0  0  0
   -1.5508   -3.6360   -1.5831 H   0  0  0  0  0  0  0  0  0  0  0  0
   -0.2549   -2.4712   -1.5767 H   0  0  0  0  0  0  0  0  0  0  0  0
   -0.4194    0.0550    3.1089 H   0  0  0  0  0  0  0  0  0  0  0  0
   -2.4942    1.5899    1.4227 H   0  0  0  0  0  0  0  0  0  0  0  0
   -2.0118    2.5979   -1.2881 H   0  0  0  0  0  0  0  0  0  0  0  0
    1.0197    5.6124   -2.0418 H   0  0  0  0  0  0  0  0  0  0  0  0
   -0.2117   -6.0397    2.2144 H   0  0  0  0  0  0  0  0  0  0  0  0
   -0.2826   -1.9367    3.5653 H   0  0  0  0  0  0  0  0  0  0  0  0
  1  2  1  0  0  0  0
  1  7  1  0  0  0  0
  2  3  1  0  0  0  0
  2  4  1  0  0  0  0
  4  5  1  0  0  0  0
  6  4  1  0  0  0  0
  7  8  1  0  0  0  0
  7  4  1  0  0  0  0
  8  2  1  0  0  0  0
  8  9  1  0  0  0  0
 10  8  1  0  0  0  0
  7 11  1  0  0  0  0
  7 12  1  0  0  0  0
 13 14  1  0  0  0  0
 13 17  1  0  0  0  0
 14 15  1  0  0  0  0
 15 18  1  0  0  0  0
 15 16  1  0  0  0  0
 16 19  1  0  0  0  0
 16 17  1  0  0  0  0
 20 23  2  0  0  0  0
 23 24  1  0  0  0  0
 21 24  2  0  0  0  0
 21 25  1  0  0  0  0
 22 25  2  0  0  0  0
 20 22  1  0  0  0  0
 24 26  1  0  0  0  0
 25 27  1  0  0  0  0
 17 20  1  0  0  0  0
 28 31  2  0  0  0  0
 31 32  1  0  0  0  0
 29 32  2  0  0  0  0
 29 33  1  0  0  0  0
 30 33  2  0  0  0  0
 28 30  1  0  0  0  0
 32 34  1  0  0  0  0
 33 35  1  0  0  0  0
 14 28  1  0  0  0  0
 36 37  1  0  0  0  0
 36 38  1  0  0  0  0
 36 39  1  0  0  0  0
 31 36  1  0  0  0  0
 40 41  1  0  0  0  0
 40 42  1  0  0  0  0
 40 43  1  0  0  0  0
 22 40  1  0  0  0  0
 16 44  1  0  0  0  0
 15 45  1  0  0  0  0
 30 46  1  0  0  0  0
 29 47  1  0  0  0  0
 21 48  1  0  0  0  0
 23 49  1  0  0  0  0
  7 13  1  0  0  0  0
M  END
>  <DFT-ENERGY>
-1899.80157009

$$$$
