
  CDK     08132400293D

 49 49  0  0  0  0  0  0  0  0999 V2000
   -0.6329    3.4008   -2.0523 C   0  0  0  0  0  0  0  0  0  0  0  0
    0.3706    3.3277   -2.5073 H   0  0  0  0  0  0  0  0  0  0  0  0
   -1.1221    4.3481   -2.3714 H   0  0  0  0  0  0  0  0  0  0  0  0
   -1.2555    2.5774   -2.4600 H   0  0  0  0  0  0  0  0  0  0  0  0
   -0.5792    3.3714   -0.5420 C   0  0  0  0  0  0  0  0  0  0  0  0
   -1.5478    3.4920   -0.0216 H   0  0  0  0  0  0  0  0  0  0  0  0
    0.5604    3.7708    0.2037 C   0  0  0  0  0  0  0  0  0  0  0  0
    1.5005    3.9077   -0.3592 H   0  0  0  0  0  0  0  0  0  0  0  0
    0.3886    4.5399    1.4935 C   0  0  0  0  0  0  0  0  0  0  0  0
    1.3081    4.5634    2.1081 H   0  0  0  0  0  0  0  0  0  0  0  0
    0.1319    5.5904    1.2365 H   0  0  0  0  0  0  0  0  0  0  0  0
   -0.4443    4.1203    2.0911 H   0  0  0  0  0  0  0  0  0  0  0  0
    1.3890    1.9232    1.3375 C   0  0  0  0  0  0  0  0  0  0  0  0
    1.0807    2.1234    2.3873 H   0  0  0  0  0  0  0  0  0  0  0  0
    2.4719    2.0226    1.0953 H   0  0  0  0  0  0  0  0  0  0  0  0
    0.1719    1.4211    0.0733 Ru  0  0  0  0  0  0  0  0  0  0  0  0
   -1.6201    1.5267    1.6766 Cl  0  0  0  0  0  0  0  0  0  0  0  0
    1.9082    1.3752   -1.5908 Cl  0  0  0  0  0  0  0  0  0  0  0  0
    0.0457   -0.9322   -0.0397 P   0  0  0  0  0  0  0  0  0  0  0  0
   -0.5265   -1.8988    1.4748 C   0  0  0  0  0  0  0  0  0  0  0  0
   -0.1243   -2.9195    1.2915 H   0  0  0  0  0  0  0  0  0  0  0  0
    0.1194   -1.3230    2.7431 C   0  0  0  0  0  0  0  0  0  0  0  0
   -0.2874   -0.3131    2.9464 H   0  0  0  0  0  0  0  0  0  0  0  0
   -0.1119   -1.9793    3.6079 H   0  0  0  0  0  0  0  0  0  0  0  0
   -2.3604   -0.3238   -1.3391 C   0  0  0  0  0  0  0  0  0  0  0  0
   -2.8247   -0.2930   -0.3380 H   0  0  0  0  0  0  0  0  0  0  0  0
   -2.0366    0.7137   -1.5715 H   0  0  0  0  0  0  0  0  0  0  0  0
    1.6370   -1.7860   -0.5652 C   0  0  0  0  0  0  0  0  0  0  0  0
    1.8528   -1.2672   -1.5217 H   0  0  0  0  0  0  0  0  0  0  0  0
   -1.1716   -1.2927   -1.4353 C   0  0  0  0  0  0  0  0  0  0  0  0
   -0.5058   -1.1844   -2.8138 C   0  0  0  0  0  0  0  0  0  0  0  0
   -2.0479   -1.9979    1.6299 C   0  0  0  0  0  0  0  0  0  0  0  0
   -2.2788   -2.6304    2.5126 H   0  0  0  0  0  0  0  0  0  0  0  0
   -2.4874   -0.9964    1.8015 H   0  0  0  0  0  0  0  0  0  0  0  0
    1.4706   -3.2908   -0.8035 C   0  0  0  0  0  0  0  0  0  0  0  0
    2.3864   -3.6935   -1.2841 H   0  0  0  0  0  0  0  0  0  0  0  0
    1.3349   -3.8467    0.1469 H   0  0  0  0  0  0  0  0  0  0  0  0
    2.8023   -1.4860    0.3819 C   0  0  0  0  0  0  0  0  0  0  0  0
    3.7479   -1.8503   -0.0702 H   0  0  0  0  0  0  0  0  0  0  0  0
    2.6860   -1.9973    1.3588 H   0  0  0  0  0  0  0  0  0  0  0  0
    2.9089   -0.3980    0.5508 H   0  0  0  0  0  0  0  0  0  0  0  0
    1.2201   -1.2451    2.6622 H   0  0  0  0  0  0  0  0  0  0  0  0
    0.6148   -3.5341   -1.4635 H   0  0  0  0  0  0  0  0  0  0  0  0
   -1.5293   -2.3329   -1.2716 H   0  0  0  0  0  0  0  0  0  0  0  0
   -2.5382   -2.4649    0.7536 H   0  0  0  0  0  0  0  0  0  0  0  0
    0.0112   -0.2099   -2.9338 H   0  0  0  0  0  0  0  0  0  0  0  0
   -1.2837   -1.2652   -3.6011 H   0  0  0  0  0  0  0  0  0  0  0  0
    0.2361   -1.9841   -2.9968 H   0  0  0  0  0  0  0  0  0  0  0  0
   -3.1322   -0.5989   -2.0873 H   0  0  0  0  0  0  0  0  0  0  0  0
  1  2  1  0  0  0  0
  1  5  1  0  0  0  0
  3  1  1  0  0  0  0
  4  1  1  0  0  0  0
  5  6  1  0  0  0  0
  5 16  1  0  0  0  0
  5  7  1  0  0  0  0
  7  9  1  0  0  0  0
  7  8  1  0  0  0  0
  9 10  1  0  0  0  0
 11  9  1  0  0  0  0
 12  9  1  0  0  0  0
 13 14  1  0  0  0  0
 13 15  1  0  0  0  0
 13  7  1  0  0  0  0
 16 13  1  0  0  0  0
 16 17  1  0  0  0  0
 16 18  1  0  0  0  0
 19 20  1  0  0  0  0
 19 28  1  0  0  0  0
 19 30  1  0  0  0  0
 20 21  1  0  0  0  0
 20 22  1  0  0  0  0
 20 32  1  0  0  0  0
 22 23  1  0  0  0  0
 22 24  1  0  0  0  0
 25 26  1  0  0  0  0
 25 27  1  0  0  0  0
 25 30  1  0  0  0  0
 28 29  1  0  0  0  0
 28 35  1  0  0  0  0
 28 38  1  0  0  0  0
 30 31  1  0  0  0  0
 32 33  1  0  0  0  0
 32 34  1  0  0  0  0
 35 36  1  0  0  0  0
 35 37  1  0  0  0  0
 38 39  1  0  0  0  0
 38 40  1  0  0  0  0
 38 41  1  0  0  0  0
 22 42  1  0  0  0  0
 35 43  1  0  0  0  0
 30 44  1  0  0  0  0
 32 45  1  0  0  0  0
 31 46  1  0  0  0  0
 31 47  1  0  0  0  0
 31 48  1  0  0  0  0
 25 49  1  0  0  0  0
 16 19  1  0  0  0  0
M  END
>  <DFT-ENERGY>
-1907.42103968

$$$$
