
  CDK     08132412093D

 43 43  0  0  0  0  0  0  0  0999 V2000
    1.6316    1.0782   -0.0970 Ru  0  0  0  0  0  0  0  0  0  0  0  0
    2.9112    1.5695   -1.4933 C   0  0  0  0  0  0  0  0  0  0  0  0
    2.5606    2.3274   -2.2175 H   0  0  0  0  0  0  0  0  0  0  0  0
    3.5559    2.2057   -0.1993 C   0  0  0  0  0  0  0  0  0  0  0  0
    3.5864    3.2972   -0.3730 H   0  0  0  0  0  0  0  0  0  0  0  0
    2.7961    1.9999    1.1742 C   0  0  0  0  0  0  0  0  0  0  0  0
    3.3550    1.3540    1.8763 H   0  0  0  0  0  0  0  0  0  0  0  0
    2.3996    2.9442    1.5899 H   0  0  0  0  0  0  0  0  0  0  0  0
    4.5420    1.7209   -0.0774 H   0  0  0  0  0  0  0  0  0  0  0  0
    3.5118    0.7385   -1.9065 H   0  0  0  0  0  0  0  0  0  0  0  0
    0.4996    3.1404   -0.4825 Cl  0  0  0  0  0  0  0  0  0  0  0  0
    2.8712   -0.9416    0.2801 Cl  0  0  0  0  0  0  0  0  0  0  0  0
   -0.3391   -0.2248    0.0331 P   0  0  0  0  0  0  0  0  0  0  0  0
   -2.0345    0.5811   -0.0430 C   0  0  0  0  0  0  0  0  0  0  0  0
   -2.7297   -0.2803    0.0831 H   0  0  0  0  0  0  0  0  0  0  0  0
   -2.2454    1.5763    1.1041 C   0  0  0  0  0  0  0  0  0  0  0  0
   -1.4886    2.3844    1.0597 H   0  0  0  0  0  0  0  0  0  0  0  0
   -3.2496    2.0392    1.0090 H   0  0  0  0  0  0  0  0  0  0  0  0
    0.3676   -0.7900   -2.6130 C   0  0  0  0  0  0  0  0  0  0  0  0
    0.0333    0.2453   -2.8212 H   0  0  0  0  0  0  0  0  0  0  0  0
    1.4565   -0.7681   -2.4076 H   0  0  0  0  0  0  0  0  0  0  0  0
   -0.2811   -1.2276    1.6174 C   0  0  0  0  0  0  0  0  0  0  0  0
    0.5057   -1.9706    1.3712 H   0  0  0  0  0  0  0  0  0  0  0  0
   -0.3715   -1.4255   -1.4234 C   0  0  0  0  0  0  0  0  0  0  0  0
    0.1930   -2.8124   -1.1061 C   0  0  0  0  0  0  0  0  0  0  0  0
   -2.2942    1.2300   -1.4087 C   0  0  0  0  0  0  0  0  0  0  0  0
   -3.3137    1.6684   -1.4127 H   0  0  0  0  0  0  0  0  0  0  0  0
   -1.5668    2.0443   -1.5964 H   0  0  0  0  0  0  0  0  0  0  0  0
   -1.5985   -1.9390    1.9383 C   0  0  0  0  0  0  0  0  0  0  0  0
   -1.4449   -2.6346    2.7893 H   0  0  0  0  0  0  0  0  0  0  0  0
   -2.3919   -1.2252    2.2379 H   0  0  0  0  0  0  0  0  0  0  0  0
    0.2446   -0.3892    2.7908 C   0  0  0  0  0  0  0  0  0  0  0  0
    0.3441   -1.0336    3.6886 H   0  0  0  0  0  0  0  0  0  0  0  0
   -0.4294    0.4496    3.0509 H   0  0  0  0  0  0  0  0  0  0  0  0
    1.2470    0.0210    2.5600 H   0  0  0  0  0  0  0  0  0  0  0  0
   -2.1966    1.0913    2.0978 H   0  0  0  0  0  0  0  0  0  0  0  0
   -1.9803   -2.5355    1.0856 H   0  0  0  0  0  0  0  0  0  0  0  0
   -1.4530   -1.5150   -1.6676 H   0  0  0  0  0  0  0  0  0  0  0  0
   -2.2464    0.5022   -2.2420 H   0  0  0  0  0  0  0  0  0  0  0  0
    1.2487   -2.7381   -0.7776 H   0  0  0  0  0  0  0  0  0  0  0  0
    0.1602   -3.4320   -2.0265 H   0  0  0  0  0  0  0  0  0  0  0  0
   -0.3883   -3.3432   -0.3278 H   0  0  0  0  0  0  0  0  0  0  0  0
    0.2026   -1.3960   -3.5275 H   0  0  0  0  0  0  0  0  0  0  0  0
  2  4  1  0  0  0  0
  2  1  1  0  0  0  0
  2  3  1  0  0  0  0
  4  6  1  0  0  0  0
  4  5  1  0  0  0  0
  6  1  1  0  0  0  0
  6  8  1  0  0  0  0
  7  6  1  0  0  0  0
  9  4  1  0  0  0  0
 10  2  1  0  0  0  0
  1 11  1  0  0  0  0
  1 12  1  0  0  0  0
 13 14  1  0  0  0  0
 13 22  1  0  0  0  0
 13 24  1  0  0  0  0
 14 15  1  0  0  0  0
 14 16  1  0  0  0  0
 14 26  1  0  0  0  0
 16 17  1  0  0  0  0
 16 18  1  0  0  0  0
 19 20  1  0  0  0  0
 19 21  1  0  0  0  0
 19 24  1  0  0  0  0
 22 23  1  0  0  0  0
 22 29  1  0  0  0  0
 22 32  1  0  0  0  0
 24 25  1  0  0  0  0
 26 27  1  0  0  0  0
 26 28  1  0  0  0  0
 29 30  1  0  0  0  0
 29 31  1  0  0  0  0
 32 33  1  0  0  0  0
 32 34  1  0  0  0  0
 32 35  1  0  0  0  0
 16 36  1  0  0  0  0
 29 37  1  0  0  0  0
 24 38  1  0  0  0  0
 26 39  1  0  0  0  0
 25 40  1  0  0  0  0
 25 41  1  0  0  0  0
 25 42  1  0  0  0  0
 19 43  1  0  0  0  0
  1 13  1  0  0  0  0
M  END
>  <DFT-ENERGY>
-1828.91053448

$$$$
