
  CDK     08132408493D

 43 44  0  0  0  0  0  0  0  0999 V2000
    0.9232   -0.0746   -3.1822 H   0  0  0  0  0  0  0  0  0  0  0  0
    2.1536   -0.0731   -3.1997 C   0  0  0  0  0  0  0  0  0  0  0  0
    2.0314    0.4346   -4.1879 H   0  0  0  0  0  0  0  0  0  0  0  0
    2.3871    0.6688   -1.9391 C   0  0  0  0  0  0  0  0  0  0  0  0
    3.3382    0.4711   -1.4182 H   0  0  0  0  0  0  0  0  0  0  0  0
    2.0346    1.7119   -1.8901 H   0  0  0  0  0  0  0  0  0  0  0  0
    0.9820   -0.8490   -1.5874 Ru  0  0  0  0  0  0  0  0  0  0  0  0
    2.4892   -1.4819   -3.0841 C   0  0  0  0  0  0  0  0  0  0  0  0
    3.3817   -1.7761   -2.5156 H   0  0  0  0  0  0  0  0  0  0  0  0
    2.1504   -2.1693   -3.8756 H   0  0  0  0  0  0  0  0  0  0  0  0
    2.4634   -1.7519    0.0041 Cl  0  0  0  0  0  0  0  0  0  0  0  0
   -1.0371   -0.9698   -2.8269 Cl  0  0  0  0  0  0  0  0  0  0  0  0
   -0.2738   -0.1678    0.3323 P   0  0  0  0  0  0  0  0  0  0  0  0
   -1.5554    1.1955    0.0123 C   0  0  0  0  0  0  0  0  0  0  0  0
   -1.6130    1.7209    0.9902 H   0  0  0  0  0  0  0  0  0  0  0  0
   -1.0370    2.1778   -1.0454 C   0  0  0  0  0  0  0  0  0  0  0  0
   -0.9918    1.6858   -2.0368 H   0  0  0  0  0  0  0  0  0  0  0  0
   -1.7241    3.0469   -1.1185 H   0  0  0  0  0  0  0  0  0  0  0  0
   -1.8487   -2.5078    0.1307 C   0  0  0  0  0  0  0  0  0  0  0  0
   -2.4800   -1.9825   -0.6065 H   0  0  0  0  0  0  0  0  0  0  0  0
   -1.0542   -3.0335   -0.4384 H   0  0  0  0  0  0  0  0  0  0  0  0
    0.7479    0.5360    1.7574 C   0  0  0  0  0  0  0  0  0  0  0  0
    1.3745   -0.3376    2.0306 H   0  0  0  0  0  0  0  0  0  0  0  0
   -1.2280   -1.5731    1.1768 C   0  0  0  0  0  0  0  0  0  0  0  0
   -0.3550   -2.3898    2.1401 C   0  0  0  0  0  0  0  0  0  0  0  0
   -2.9603    0.7004   -0.3453 C   0  0  0  0  0  0  0  0  0  0  0  0
   -3.6377    1.5752   -0.4395 H   0  0  0  0  0  0  0  0  0  0  0  0
   -2.9578    0.1669   -1.3148 H   0  0  0  0  0  0  0  0  0  0  0  0
   -0.0928    0.9655    2.9661 C   0  0  0  0  0  0  0  0  0  0  0  0
    0.5759    1.1694    3.8283 H   0  0  0  0  0  0  0  0  0  0  0  0
   -0.6510    1.9033    2.7663 H   0  0  0  0  0  0  0  0  0  0  0  0
    1.6935    1.6555    1.3180 C   0  0  0  0  0  0  0  0  0  0  0  0
    2.3331    1.9581    2.1733 H   0  0  0  0  0  0  0  0  0  0  0  0
    1.1433    2.5598    0.9866 H   0  0  0  0  0  0  0  0  0  0  0  0
    2.3546    1.3203    0.5002 H   0  0  0  0  0  0  0  0  0  0  0  0
   -0.0269    2.5618   -0.8071 H   0  0  0  0  0  0  0  0  0  0  0  0
   -0.8241    0.1989    3.2874 H   0  0  0  0  0  0  0  0  0  0  0  0
   -2.0397   -1.0755    1.7526 H   0  0  0  0  0  0  0  0  0  0  0  0
   -3.3897    0.0342    0.4273 H   0  0  0  0  0  0  0  0  0  0  0  0
    0.5261   -2.8107    1.6177 H   0  0  0  0  0  0  0  0  0  0  0  0
   -0.9541   -3.2348    2.5389 H   0  0  0  0  0  0  0  0  0  0  0  0
    0.0076   -1.8049    3.0058 H   0  0  0  0  0  0  0  0  0  0  0  0
   -2.4650   -3.2777    0.6400 H   0  0  0  0  0  0  0  0  0  0  0  0
  1  2  1  0  0  0  0
  1  7  1  0  0  0  0
  2  3  1  0  0  0  0
  2  4  1  0  0  0  0
  4  5  1  0  0  0  0
  6  4  1  0  0  0  0
  7  8  1  0  0  0  0
  7  4  1  0  0  0  0
  8  2  1  0  0  0  0
  8  9  1  0  0  0  0
 10  8  1  0  0  0  0
  7 11  1  0  0  0  0
  7 12  1  0  0  0  0
 13 14  1  0  0  0  0
 13 22  1  0  0  0  0
 13 24  1  0  0  0  0
 14 15  1  0  0  0  0
 14 16  1  0  0  0  0
 14 26  1  0  0  0  0
 16 17  1  0  0  0  0
 16 18  1  0  0  0  0
 19 20  1  0  0  0  0
 19 21  1  0  0  0  0
 19 24  1  0  0  0  0
 22 23  1  0  0  0  0
 22 29  1  0  0  0  0
 22 32  1  0  0  0  0
 24 25  1  0  0  0  0
 26 27  1  0  0  0  0
 26 28  1  0  0  0  0
 29 30  1  0  0  0  0
 29 31  1  0  0  0  0
 32 33  1  0  0  0  0
 32 34  1  0  0  0  0
 32 35  1  0  0  0  0
 16 36  1  0  0  0  0
 29 37  1  0  0  0  0
 24 38  1  0  0  0  0
 26 39  1  0  0  0  0
 25 40  1  0  0  0  0
 25 41  1  0  0  0  0
 25 42  1  0  0  0  0
 19 43  1  0  0  0  0
  7 13  1  0  0  0  0
M  END
>  <DFT-ENERGY>
-1828.87332766

$$$$
