IPrP-5_A2
  CDK     08122414233D

 57 58  0  0  0  0  0  0  0  0999 V2000
   -0.7037   -0.3938    0.1853 Ru  0  0  0  0  0  0  0  0  0  0  0  0
   -2.4781   -0.5033   -1.2039 O   0  0  0  0  0  0  0  0  0  0  0  0
   -1.8541   -1.3999    1.1894 C   0  0  0  0  0  0  0  0  0  0  0  0
   -1.6037   -1.6779    2.2121 H   0  0  0  0  0  0  0  0  0  0  0  0
   -2.7609    0.2559   -2.4297 C   0  0  0  0  0  0  0  0  0  0  0  0
   -3.1271   -0.4634   -3.1925 H   0  0  0  0  0  0  0  0  0  0  0  0
   -1.3703    0.7870   -2.7538 C   0  0  0  0  0  0  0  0  0  0  0  0
   -1.3440    1.2943   -3.7219 H   0  0  0  0  0  0  0  0  0  0  0  0
   -1.0305    1.5050   -1.9824 H   0  0  0  0  0  0  0  0  0  0  0  0
   -0.6358   -0.0419   -2.7759 H   0  0  0  0  0  0  0  0  0  0  0  0
   -3.7681    1.3438   -2.1002 C   0  0  0  0  0  0  0  0  0  0  0  0
   -3.8164    2.1073   -2.8827 H   0  0  0  0  0  0  0  0  0  0  0  0
   -4.7778    0.9503   -1.9428 H   0  0  0  0  0  0  0  0  0  0  0  0
   -3.4776    1.8541   -1.1609 H   0  0  0  0  0  0  0  0  0  0  0  0
   -3.4193   -1.3613   -0.6989 C   0  0  0  0  0  0  0  0  0  0  0  0
   -4.5647   -1.7814   -1.3519 C   0  0  0  0  0  0  0  0  0  0  0  0
   -4.8044   -1.4448   -2.3578 H   0  0  0  0  0  0  0  0  0  0  0  0
   -5.4130   -2.6664   -0.6944 C   0  0  0  0  0  0  0  0  0  0  0  0
   -6.3162   -3.0105   -1.2030 H   0  0  0  0  0  0  0  0  0  0  0  0
   -5.1344   -3.1218    0.5909 C   0  0  0  0  0  0  0  0  0  0  0  0
   -5.8182   -3.8098    1.0852 H   0  0  0  0  0  0  0  0  0  0  0  0
   -3.9891   -2.6901    1.2325 C   0  0  0  0  0  0  0  0  0  0  0  0
   -3.7753   -3.0306    2.2445 H   0  0  0  0  0  0  0  0  0  0  0  0
   -3.1056   -1.8185    0.5931 C   0  0  0  0  0  0  0  0  0  0  0  0
   -1.4320    1.7418    0.7416 Cl  0  0  0  0  0  0  0  0  0  0  0  0
    0.2046   -2.0130   -1.1469 Cl  0  0  0  0  0  0  0  0  0  0  0  0
    0.9801   -0.3616    1.6228 P   0  0  0  0  0  0  0  0  0  0  0  0
    1.3892   -1.9778    2.5894 C   0  0  0  0  0  0  0  0  0  0  0  0
    0.6435   -2.0269    3.4272 H   0  0  0  0  0  0  0  0  0  0  0  0
    1.1684   -3.1722    1.6704 C   0  0  0  0  0  0  0  0  0  0  0  0
    1.8383   -3.1836    0.7966 H   0  0  0  0  0  0  0  0  0  0  0  0
    1.3436   -4.1154    2.2050 H   0  0  0  0  0  0  0  0  0  0  0  0
    3.3791   -0.8735    0.1090 C   0  0  0  0  0  0  0  0  0  0  0  0
    3.8237   -1.4978    0.9014 H   0  0  0  0  0  0  0  0  0  0  0  0
    2.8130   -1.5403   -0.5644 H   0  0  0  0  0  0  0  0  0  0  0  0
    0.7944    0.9777    3.0017 C   0  0  0  0  0  0  0  0  0  0  0  0
    0.5622    1.9417    2.4668 H   0  0  0  0  0  0  0  0  0  0  0  0
    2.5305    0.2627    0.6596 C   0  0  0  0  0  0  0  0  0  0  0  0
    1.9745    1.1340   -0.4676 C   0  0  0  0  0  0  0  0  0  0  0  0
    2.7873   -1.9886    3.1943 C   0  0  0  0  0  0  0  0  0  0  0  0
    2.9615   -2.9320    3.7315 H   0  0  0  0  0  0  0  0  0  0  0  0
    3.5832   -1.9183    2.4327 H   0  0  0  0  0  0  0  0  0  0  0  0
    2.0627    1.1805    3.8192 C   0  0  0  0  0  0  0  0  0  0  0  0
    1.8990    1.9538    4.5844 H   0  0  0  0  0  0  0  0  0  0  0  0
    2.3809    0.2737    4.3598 H   0  0  0  0  0  0  0  0  0  0  0  0
   -0.4042    0.6173    3.8706 C   0  0  0  0  0  0  0  0  0  0  0  0
   -0.5953    1.4148    4.6048 H   0  0  0  0  0  0  0  0  0  0  0  0
   -0.2724   -0.3052    4.4467 H   0  0  0  0  0  0  0  0  0  0  0  0
   -1.3351    0.5407    3.2783 H   0  0  0  0  0  0  0  0  0  0  0  0
    0.1404   -3.2306    1.2696 H   0  0  0  0  0  0  0  0  0  0  0  0
    2.9098    1.5239    3.2099 H   0  0  0  0  0  0  0  0  0  0  0  0
    3.1496    0.8857    1.3506 H   0  0  0  0  0  0  0  0  0  0  0  0
    2.9425   -1.1781    3.9248 H   0  0  0  0  0  0  0  0  0  0  0  0
    1.5198    0.5335   -1.2827 H   0  0  0  0  0  0  0  0  0  0  0  0
    2.7839    1.7027   -0.9483 H   0  0  0  0  0  0  0  0  0  0  0  0
    1.2340    1.8850   -0.1382 H   0  0  0  0  0  0  0  0  0  0  0  0
    4.2116   -0.4771   -0.4885 H   0  0  0  0  0  0  0  0  0  0  0  0
  1  2  1  0  0  0  0
  1  3  2  0  0  0  0
  3  4  1  0  0  0  0
  2  5  1  0  0  0  0
  5  6  1  0  0  0  0
  5  7  1  0  0  0  0
  7  8  1  0  0  0  0
  7  9  1  0  0  0  0
  7 10  1  0  0  0  0
  5 11  1  0  0  0  0
 11 12  1  0  0  0  0
 11 13  1  0  0  0  0
 11 14  1  0  0  0  0
  2 15  1  0  0  0  0
 15 24  1  0  0  0  0
 15 16  2  0  0  0  0
 16 17  1  0  0  0  0
 16 18  1  0  0  0  0
 18 19  1  0  0  0  0
 18 20  2  0  0  0  0
 20 21  1  0  0  0  0
 20 22  1  0  0  0  0
 22 24  2  0  0  0  0
 22 23  1  0  0  0  0
  3 24  1  0  0  0  0
  1 25  1  0  0  0  0
  1 26  1  0  0  0  0
 27 28  1  0  0  0  0
 27 36  1  0  0  0  0
 27 38  1  0  0  0  0
 28 29  1  0  0  0  0
 28 30  1  0  0  0  0
 28 40  1  0  0  0  0
 30 31  1  0  0  0  0
 30 32  1  0  0  0  0
 33 34  1  0  0  0  0
 33 35  1  0  0  0  0
 33 38  1  0  0  0  0
 36 37  1  0  0  0  0
 36 43  1  0  0  0  0
 36 46  1  0  0  0  0
 38 39  1  0  0  0  0
 40 41  1  0  0  0  0
 40 42  1  0  0  0  0
 43 44  1  0  0  0  0
 43 45  1  0  0  0  0
 46 47  1  0  0  0  0
 46 48  1  0  0  0  0
 46 49  1  0  0  0  0
 30 50  1  0  0  0  0
 43 51  1  0  0  0  0
 38 52  1  0  0  0  0
 40 53  1  0  0  0  0
 39 54  1  0  0  0  0
 39 55  1  0  0  0  0
 39 56  1  0  0  0  0
 33 57  1  0  0  0  0
  1 27  1  0  0  0  0
M  END
> <FrozenCore-PM6_ENERGY>
167.521

> <RMSD_CONF_CG-CS>
2.507715

> <RMSD_CONF_GO-CS>
0.000000

> <UID>


> <DESCRIPTOR_DEFINITION_1>
desc1=( echo "1 * ( e( $hartree_to_kcalmol * ( ( $freeEnergyZ - $freeEnergyD ) - ( $freeEnergyX + 2*$G_Ethene - $freeEnergyD - 2*$G_Propene ) - $DDG_reference_HGII ) / $kT ) ) " | bc -l )

> <DESCRIPTOR_DEFINITION_2>
desc1=( echo "1 * ( e( $hartree_to_kcalmol * ( ( $freeEnergyZ - $freeEnergyD ) - ( $freeEnergyX + 2*$G_Ethene - $freeEnergyD - 2*$G_Propene ) - $DDG_reference_HGII ) / $kT ) ) " | bc -l )

> <DESCRIPTOR_DEFINITION_3>
desc1=( echo "1 * ( e( $hartree_to_kcalmol * ( ( $freeEnergyZ - $freeEnergyD ) - ( $freeEnergyX + 2*$G_Ethene - $freeEnergyD - 2*$G_Propene ) - $DDG_reference_HGII ) / $kT ) ) " | bc -l )

> <WEIGHT_DEFINITION_1>
w1=$( echo "1 / ( 1 + e( $hartree_to_kcalmol * ( ( ( $freeEnergyX + 2*$G_Ethene - $freeEnergyD - 2*$G_Propene ) ) - ( $DG_referenceProductionBarrier + $magnitude4 ) ) / $kT ) )" | bc -l )

> <WEIGHT_DEFINITION_2>
w1=$( echo "1 / ( 1 + e( $hartree_to_kcalmol * ( ( ( $freeEnergyX + 2*$G_Ethene - $freeEnergyD - 2*$G_Propene ) ) - ( $DG_referenceProductionBarrier + $magnitude4 ) ) / $kT ) )" | bc -l )

> <WEIGHT_DEFINITION_3>
w1=$( echo "1 / ( 1 + e( $hartree_to_kcalmol * ( ( ( $freeEnergyX + 2*$G_Ethene - $freeEnergyD - 2*$G_Propene ) ) - ( $DG_referenceProductionBarrier + $magnitude4 ) ) / $kT ) )" | bc -l )

> <WEIGHT_DEFINITION_4>
w1=$( echo "1 / ( 1 + e( $hartree_to_kcalmol * ( ( ( $freeEnergyX + 2*$G_Ethene - $freeEnergyD - 2*$G_Propene ) ) - ( $DG_referenceProductionBarrier + $magnitude4 ) ) / $kT ) )" | bc -l )

> <CALCULATION_OF_OVERALL_FITNESS>
fitness=$( echo "( $desc1 + $desc2 + $desc3 ) * ( $w1 * $w2 * $w3 * $w4 )" | bc -l )

> <freeEnergyA>
-2174.15861564

> <freeEnergyF>
-2174.13678887

> <freeEnergyE>
-2174.15861564

> <freeEnergyC>
-1828.8939919

> <freeEnergyL>
-696.320330692

> <freeEnergyX>
-1907.42103963

> <freeEnergyZ>
-1828.87332817

> <freeEnergyD>
-1828.91053443

> <G_Propene>
-117.738020895

> <G_Ethene>
-78.4716324751

> <G_HoveydaProd>
-502.204109499

> <G_SIMes>
-924.27249048

> <G_HG_RuCl2_SIMes>
-2402.13728523

> <DG_referenceProductionBarrier>
0.01468968

> <DG_referencePrecursorStabilityHII>
-0.0052201621

> <DG_referencePrecursorStabilityHI>
0.0117775312

> <DDG_referencePrecursorStability>
.0169976933

> <DG_referenceSynt>
0.0226072217

> <hartree_to_kcalmol>
627.49467516

> <boltzmann_constant>
0.0000000000000000000000138066

> <avogadro_number>
602214000000000000000000

> <jmol_to_kcalmol>
0.00023901

> <temp>
313.15

> <kT>
.6223089948281258706000000000

> <magnitude1>
1.43290809

> <magnitude2>
2.86581618

> <magnitude3>
4.29872427

> <magnitude4>
5.73163236

> <DFT_IDENTIFIER>
1723546981273

> <DFT_MACHINE>
158.39.114.73

> <XTB_IDENTIFIER>
1723546613429

> <XTB_MACHINE>
158.39.114.73

> <DESCRIPTOR_1>
.00063780693690127952

> <DESCRIPTOR_2>
9.371394651036974232

> <DESCRIPTOR_3>
0.0000000001

> <WEIGHT_1>
.99989998104227370933

> <WEIGHT_2>
.99996856498736034677

> <WEIGHT_3>
.16348336125100838162

> <WEIGHT_4>
.99999997234662326277

> <FITNESS>
1.53196992044301608182

$$$$
