
  CDK     02052415523D

 70 73  0  0  0  0  0  0  0  0999 V2000
   -4.1994    2.0732    0.9017 C   0  0  0  0  0  0  0  0  0  0  0  0
   -4.0834    2.5410   -0.0923 H   0  0  0  0  0  0  0  0  0  0  0  0
   -5.2205    2.2843    1.2907 H   0  0  0  0  0  0  0  0  0  0  0  0
   -3.4857    2.5580    1.5964 H   0  0  0  0  0  0  0  0  0  0  0  0
   -4.0056    0.5744    0.8440 C   0  0  0  0  0  0  0  0  0  0  0  0
   -4.0346    0.0418    1.8137 H   0  0  0  0  0  0  0  0  0  0  0  0
   -4.4398   -0.1949   -0.2673 C   0  0  0  0  0  0  0  0  0  0  0  0
   -4.6764    0.3734   -1.1849 H   0  0  0  0  0  0  0  0  0  0  0  0
   -5.1299   -1.5238   -0.0688 C   0  0  0  0  0  0  0  0  0  0  0  0
   -5.2042   -2.1131   -1.0019 H   0  0  0  0  0  0  0  0  0  0  0  0
   -6.1649   -1.3239    0.2844 H   0  0  0  0  0  0  0  0  0  0  0  0
   -4.6094   -2.1205    0.7056 H   0  0  0  0  0  0  0  0  0  0  0  0
   -2.6198   -1.1531   -1.3420 C   0  0  0  0  0  0  0  0  0  0  0  0
   -2.7688   -2.2423   -1.1668 H   0  0  0  0  0  0  0  0  0  0  0  0
   -2.8126   -0.7821   -2.3747 H   0  0  0  0  0  0  0  0  0  0  0  0
   -2.0599   -0.0367    0.0006 Ru  0  0  0  0  0  0  0  0  0  0  0  0
   -2.0982   -1.7847    1.6551 Cl  0  0  0  0  0  0  0  0  0  0  0  0
   -2.0450    1.8169   -1.5434 Cl  0  0  0  0  0  0  0  0  0  0  0  0
    0.2957    0.0055   -0.0054 P   0  0  0  0  0  0  0  0  0  0  0  0
    0.5165    1.5128    1.0834 C   0  0  0  0  0  0  0  0  0  0  0  0
    0.3004    2.3346    0.3650 H   0  0  0  0  0  0  0  0  0  0  0  0
   -0.6235    1.5090    2.1204 C   0  0  0  0  0  0  0  0  0  0  0  0
   -1.6156    1.4025    1.6103 H   0  0  0  0  0  0  0  0  0  0  0  0
   -0.5342    0.6337    2.7974 H   0  0  0  0  0  0  0  0  0  0  0  0
    2.6475   -1.4521    0.9158 C   0  0  0  0  0  0  0  0  0  0  0  0
    3.1251   -1.4078   -0.0886 H   0  0  0  0  0  0  0  0  0  0  0  0
    2.9781   -0.5496    1.4615 H   0  0  0  0  0  0  0  0  0  0  0  0
    0.7018    3.1085    3.5719 C   0  0  0  0  0  0  0  0  0  0  0  0
    0.9113    2.3297    4.3394 H   0  0  0  0  0  0  0  0  0  0  0  0
    0.6704    4.0793    4.1083 H   0  0  0  0  0  0  0  0  0  0  0  0
    1.2053    0.2825   -1.6263 C   0  0  0  0  0  0  0  0  0  0  0  0
    2.1736   -0.2497   -1.4864 H   0  0  0  0  0  0  0  0  0  0  0  0
    1.1169   -1.4943    0.7567 C   0  0  0  0  0  0  0  0  0  0  0  0
    0.6346   -1.5503    1.7579 H   0  0  0  0  0  0  0  0  0  0  0  0
    1.8671    1.7759    1.7612 C   0  0  0  0  0  0  0  0  0  0  0  0
    2.0837    0.9548    2.4778 H   0  0  0  0  0  0  0  0  0  0  0  0
    2.6892    1.7789    1.0167 H   0  0  0  0  0  0  0  0  0  0  0  0
    2.7108   -3.9944    0.9260 C   0  0  0  0  0  0  0  0  0  0  0  0
    3.2216   -4.0458   -0.0627 H   0  0  0  0  0  0  0  0  0  0  0  0
    3.0411   -4.8875    1.4965 H   0  0  0  0  0  0  0  0  0  0  0  0
    1.8303    3.1047    2.5322 C   0  0  0  0  0  0  0  0  0  0  0  0
    2.8101    3.2860    3.0210 H   0  0  0  0  0  0  0  0  0  0  0  0
    1.6745    3.9396    1.8128 H   0  0  0  0  0  0  0  0  0  0  0  0
   -0.6563    2.8198    2.9183 C   0  0  0  0  0  0  0  0  0  0  0  0
   -0.9171    3.6519    2.2270 H   0  0  0  0  0  0  0  0  0  0  0  0
   -1.4581    2.7758    3.6839 H   0  0  0  0  0  0  0  0  0  0  0  0
    3.1445   -2.7120    1.6456 C   0  0  0  0  0  0  0  0  0  0  0  0
    2.7326   -2.7131    2.6799 H   0  0  0  0  0  0  0  0  0  0  0  0
    4.2495   -2.6746    1.7461 H   0  0  0  0  0  0  0  0  0  0  0  0
    0.7065   -2.7625   -0.0193 C   0  0  0  0  0  0  0  0  0  0  0  0
   -0.3937   -2.7877   -0.1341 H   0  0  0  0  0  0  0  0  0  0  0  0
    1.1592   -2.7316   -1.0360 H   0  0  0  0  0  0  0  0  0  0  0  0
    1.5108    1.7574   -1.9427 C   0  0  0  0  0  0  0  0  0  0  0  0
    0.5501    2.3078   -2.0247 H   0  0  0  0  0  0  0  0  0  0  0  0
    2.0910    2.2225   -1.1199 H   0  0  0  0  0  0  0  0  0  0  0  0
    0.4525   -0.3819   -2.7960 C   0  0  0  0  0  0  0  0  0  0  0  0
   -0.5273    0.1289   -2.9019 H   0  0  0  0  0  0  0  0  0  0  0  0
    0.2413   -1.4463   -2.5676 H   0  0  0  0  0  0  0  0  0  0  0  0
    1.1929   -4.0213    0.7100 C   0  0  0  0  0  0  0  0  0  0  0  0
    0.8971   -4.9260    0.1391 H   0  0  0  0  0  0  0  0  0  0  0  0
    0.6721   -4.0821    1.6912 H   0  0  0  0  0  0  0  0  0  0  0  0
    1.5584    1.2079   -4.4222 C   0  0  0  0  0  0  0  0  0  0  0  0
    0.6035    1.7488   -4.6053 H   0  0  0  0  0  0  0  0  0  0  0  0
    2.1551    1.2859   -5.3549 H   0  0  0  0  0  0  0  0  0  0  0  0
    1.2483   -0.2594   -4.1022 C   0  0  0  0  0  0  0  0  0  0  0  0
    2.2027   -0.8279   -4.0141 H   0  0  0  0  0  0  0  0  0  0  0  0
    0.6789   -0.7276   -4.9319 H   0  0  0  0  0  0  0  0  0  0  0  0
    2.2978    1.8764   -3.2571 C   0  0  0  0  0  0  0  0  0  0  0  0
    2.4897    2.9468   -3.4793 H   0  0  0  0  0  0  0  0  0  0  0  0
    3.2958    1.3962   -3.1333 H   0  0  0  0  0  0  0  0  0  0  0  0
  1  2  1  0  0  0  0
  1  5  1  0  0  0  0
  1  3  1  0  0  0  0
  1  4  1  0  0  0  0
  5  6  1  0  0  0  0
  5 16  1  0  0  0  0
  5  7  1  0  0  0  0
  7  9  1  0  0  0  0
  7  8  1  0  0  0  0
  9 10  1  0  0  0  0
  9 11  1  0  0  0  0
  9 12  1  0  0  0  0
 13 14  1  0  0  0  0
 13 15  1  0  0  0  0
  7 13  1  0  0  0  0
 13 16  1  0  0  0  0
 16 17  1  0  0  0  0
 16 18  1  0  0  0  0
 19 20  1  0  0  0  0
 20 21  1  0  0  0  0
 20 22  1  0  0  0  0
 22 23  1  0  0  0  0
 22 24  1  0  0  0  0
 25 26  1  0  0  0  0
 25 27  1  0  0  0  0
 28 29  1  0  0  0  0
 28 30  1  0  0  0  0
 19 31  1  0  0  0  0
 31 32  1  0  0  0  0
 19 33  1  0  0  0  0
 33 34  1  0  0  0  0
 20 35  1  0  0  0  0
 35 36  1  0  0  0  0
 35 37  1  0  0  0  0
 38 39  1  0  0  0  0
 38 40  1  0  0  0  0
 28 41  1  0  0  0  0
 41 42  1  0  0  0  0
 41 43  1  0  0  0  0
 22 44  1  0  0  0  0
 44 45  1  0  0  0  0
 44 46  1  0  0  0  0
 25 47  1  0  0  0  0
 47 48  1  0  0  0  0
 47 49  1  0  0  0  0
 33 50  1  0  0  0  0
 50 51  1  0  0  0  0
 50 52  1  0  0  0  0
 31 53  1  0  0  0  0
 53 54  1  0  0  0  0
 53 55  1  0  0  0  0
 31 56  1  0  0  0  0
 56 57  1  0  0  0  0
 56 58  1  0  0  0  0
 38 59  1  0  0  0  0
 59 60  1  0  0  0  0
 59 61  1  0  0  0  0
 62 63  1  0  0  0  0
 62 64  1  0  0  0  0
 56 65  1  0  0  0  0
 65 66  1  0  0  0  0
 65 67  1  0  0  0  0
 53 68  1  0  0  0  0
 68 69  1  0  0  0  0
 68 70  1  0  0  0  0
 25 33  1  0  0  0  0
 28 44  1  0  0  0  0
 35 41  1  0  0  0  0
 38 47  1  0  0  0  0
 50 59  1  0  0  0  0
 62 65  1  0  0  0  0
 62 68  1  0  0  0  0
 16 19  1  0  0  0  0
M  END
>  <DFT-ENERGY>
-2257.21976839

$$$$
