
  CDK     02052418573D

 64 68  0  0  0  0  0  0  0  0999 V2000
   -0.8252    1.1194   -3.9500 H   0  0  0  0  0  0  0  0  0  0  0  0
   -0.7985    2.3491   -3.9145 C   0  0  0  0  0  0  0  0  0  0  0  0
   -0.5991    2.2958   -5.0110 H   0  0  0  0  0  0  0  0  0  0  0  0
    0.2613    2.6045   -2.9020 C   0  0  0  0  0  0  0  0  0  0  0  0
    0.1846    3.5396   -2.3214 H   0  0  0  0  0  0  0  0  0  0  0  0
    1.2898    2.3133   -3.1783 H   0  0  0  0  0  0  0  0  0  0  0  0
   -0.9848    1.1148   -2.1834 Ru  0  0  0  0  0  0  0  0  0  0  0  0
   -2.1301    2.5661   -3.3631 C   0  0  0  0  0  0  0  0  0  0  0  0
   -2.3158    3.4434   -2.7318 H   0  0  0  0  0  0  0  0  0  0  0  0
   -2.9964    2.1715   -3.9196 H   0  0  0  0  0  0  0  0  0  0  0  0
   -1.9202    2.5263   -0.4459 Cl  0  0  0  0  0  0  0  0  0  0  0  0
   -0.0601   -0.7835   -3.3604 Cl  0  0  0  0  0  0  0  0  0  0  0  0
   -0.2344    0.0651   -0.1390 P   0  0  0  0  0  0  0  0  0  0  0  0
   -1.8825   -0.6785    0.3710 C   0  0  0  0  0  0  0  0  0  0  0  0
   -2.3774    0.1925    0.8529 H   0  0  0  0  0  0  0  0  0  0  0  0
   -2.6538   -0.9768   -0.9325 C   0  0  0  0  0  0  0  0  0  0  0  0
   -2.6771   -0.0668   -1.6034 H   0  0  0  0  0  0  0  0  0  0  0  0
   -2.1427   -1.7753   -1.5099 H   0  0  0  0  0  0  0  0  0  0  0  0
    1.4042   -2.1442    0.8381 C   0  0  0  0  0  0  0  0  0  0  0  0
    1.8821   -1.5045    1.6134 H   0  0  0  0  0  0  0  0  0  0  0  0
    0.5079   -2.5891    1.3055 H   0  0  0  0  0  0  0  0  0  0  0  0
   -4.1856   -2.5421    0.3403 C   0  0  0  0  0  0  0  0  0  0  0  0
   -3.7550   -3.4489   -0.1415 H   0  0  0  0  0  0  0  0  0  0  0  0
   -5.2445   -2.7811    0.5715 H   0  0  0  0  0  0  0  0  0  0  0  0
    0.5179    1.0535    1.2747 C   0  0  0  0  0  0  0  0  0  0  0  0
    1.2968    0.3636    1.6704 H   0  0  0  0  0  0  0  0  0  0  0  0
    1.0405   -1.2931   -0.3930 C   0  0  0  0  0  0  0  0  0  0  0  0
    0.5755   -1.9450   -1.1623 H   0  0  0  0  0  0  0  0  0  0  0  0
   -1.9467   -1.8795    1.3233 C   0  0  0  0  0  0  0  0  0  0  0  0
   -1.4556   -2.7565    0.8490 H   0  0  0  0  0  0  0  0  0  0  0  0
   -1.3955   -1.6695    2.2626 H   0  0  0  0  0  0  0  0  0  0  0  0
    3.6547   -2.6936   -0.2139 C   0  0  0  0  0  0  0  0  0  0  0  0
    4.2191   -2.0983    0.5398 H   0  0  0  0  0  0  0  0  0  0  0  0
    4.3271   -3.5184   -0.5297 H   0  0  0  0  0  0  0  0  0  0  0  0
   -3.4091   -2.2424    1.6287 C   0  0  0  0  0  0  0  0  0  0  0  0
   -3.4464   -3.1124    2.3170 H   0  0  0  0  0  0  0  0  0  0  0  0
   -3.8912   -1.3932    2.1627 H   0  0  0  0  0  0  0  0  0  0  0  0
   -4.1099   -1.3648   -0.6412 C   0  0  0  0  0  0  0  0  0  0  0  0
   -4.6326   -0.4851   -0.2048 H   0  0  0  0  0  0  0  0  0  0  0  0
   -4.6319   -1.6112   -1.5886 H   0  0  0  0  0  0  0  0  0  0  0  0
    2.3893   -3.2582    0.4418 C   0  0  0  0  0  0  0  0  0  0  0  0
    1.8831   -3.9495   -0.2690 H   0  0  0  0  0  0  0  0  0  0  0  0
    2.6489   -3.8615    1.3370 H   0  0  0  0  0  0  0  0  0  0  0  0
    2.3225   -0.6874   -1.0016 C   0  0  0  0  0  0  0  0  0  0  0  0
    2.0661   -0.0598   -1.8761 H   0  0  0  0  0  0  0  0  0  0  0  0
    2.8077   -0.0286   -0.2466 H   0  0  0  0  0  0  0  0  0  0  0  0
   -0.4290    1.3827    2.4415 C   0  0  0  0  0  0  0  0  0  0  0  0
   -1.2409    2.0414    2.0725 H   0  0  0  0  0  0  0  0  0  0  0  0
   -0.9065    0.4593    2.8288 H   0  0  0  0  0  0  0  0  0  0  0  0
    1.2370    2.3152    0.7590 C   0  0  0  0  0  0  0  0  0  0  0  0
    0.4763    3.0016    0.3357 H   0  0  0  0  0  0  0  0  0  0  0  0
    1.9248    2.0552   -0.0709 H   0  0  0  0  0  0  0  0  0  0  0  0
    3.3054   -1.7940   -1.4054 C   0  0  0  0  0  0  0  0  0  0  0  0
    4.2242   -1.3444   -1.8363 H   0  0  0  0  0  0  0  0  0  0  0  0
    2.8410   -2.4017   -2.2135 H   0  0  0  0  0  0  0  0  0  0  0  0
    1.0636    3.3390    3.0683 C   0  0  0  0  0  0  0  0  0  0  0  0
    0.3075    4.0816    2.7286 H   0  0  0  0  0  0  0  0  0  0  0  0
    1.6296    3.8165    3.8953 H   0  0  0  0  0  0  0  0  0  0  0  0
    1.9984    3.0054    1.8987 C   0  0  0  0  0  0  0  0  0  0  0  0
    2.8149    2.3386    2.2604 H   0  0  0  0  0  0  0  0  0  0  0  0
    2.4898    3.9253    1.5187 H   0  0  0  0  0  0  0  0  0  0  0  0
    0.3414    2.0828    3.5718 C   0  0  0  0  0  0  0  0  0  0  0  0
   -0.3560    2.3378    4.3970 H   0  0  0  0  0  0  0  0  0  0  0  0
    1.0905    1.3772    3.9993 H   0  0  0  0  0  0  0  0  0  0  0  0
  1  2  1  0  0  0  0
  1  7  1  0  0  0  0
  2  3  1  0  0  0  0
  2  4  1  0  0  0  0
  4  5  1  0  0  0  0
  4  6  1  0  0  0  0
  7  8  1  0  0  0  0
  4  7  1  0  0  0  0
  2  8  1  0  0  0  0
  8  9  1  0  0  0  0
  8 10  1  0  0  0  0
  7 11  1  0  0  0  0
  7 12  1  0  0  0  0
 13 14  1  0  0  0  0
 14 15  1  0  0  0  0
 14 16  1  0  0  0  0
 16 17  1  0  0  0  0
 16 18  1  0  0  0  0
 19 20  1  0  0  0  0
 19 21  1  0  0  0  0
 22 23  1  0  0  0  0
 22 24  1  0  0  0  0
 13 25  1  0  0  0  0
 25 26  1  0  0  0  0
 13 27  1  0  0  0  0
 27 28  1  0  0  0  0
 14 29  1  0  0  0  0
 29 30  1  0  0  0  0
 29 31  1  0  0  0  0
 32 33  1  0  0  0  0
 32 34  1  0  0  0  0
 22 35  1  0  0  0  0
 35 36  1  0  0  0  0
 35 37  1  0  0  0  0
 16 38  1  0  0  0  0
 38 39  1  0  0  0  0
 38 40  1  0  0  0  0
 19 41  1  0  0  0  0
 41 42  1  0  0  0  0
 41 43  1  0  0  0  0
 27 44  1  0  0  0  0
 44 45  1  0  0  0  0
 44 46  1  0  0  0  0
 25 47  1  0  0  0  0
 47 48  1  0  0  0  0
 47 49  1  0  0  0  0
 25 50  1  0  0  0  0
 50 51  1  0  0  0  0
 50 52  1  0  0  0  0
 32 53  1  0  0  0  0
 53 54  1  0  0  0  0
 53 55  1  0  0  0  0
 56 57  1  0  0  0  0
 56 58  1  0  0  0  0
 50 59  1  0  0  0  0
 59 60  1  0  0  0  0
 59 61  1  0  0  0  0
 47 62  1  0  0  0  0
 62 63  1  0  0  0  0
 62 64  1  0  0  0  0
 19 27  1  0  0  0  0
 22 38  1  0  0  0  0
 29 35  1  0  0  0  0
 32 41  1  0  0  0  0
 44 53  1  0  0  0  0
 56 59  1  0  0  0  0
 56 62  1  0  0  0  0
  7 13  1  0  0  0  0
M  END
>  <DFT-ENERGY>
-2178.67398162

$$$$
