LOVPETMODN1_A1
  CDK     02052411123D

 78 82  0  0  0  0  0  0  0  0999 V2000
   -1.0652   -0.0124   -0.9218 Ru  0  0  0  0  0  0  0  0  0  0  0  0
   -2.8396    0.0971   -2.3110 O   0  0  0  0  0  0  0  0  0  0  0  0
   -2.2156    0.9937    0.0823 C   0  0  0  0  0  0  0  0  0  0  0  0
   -1.9652    1.2717    1.1050 H   0  0  0  0  0  0  0  0  0  0  0  0
   -3.1224   -0.6621   -3.5368 C   0  0  0  0  0  0  0  0  0  0  0  0
   -3.4898    0.0572   -4.2991 H   0  0  0  0  0  0  0  0  0  0  0  0
   -1.7297   -1.1882   -3.8595 C   0  0  0  0  0  0  0  0  0  0  0  0
   -1.6935   -1.6718   -4.8394 H   0  0  0  0  0  0  0  0  0  0  0  0
   -1.3965   -1.9230   -3.1021 H   0  0  0  0  0  0  0  0  0  0  0  0
   -0.9933   -0.3589   -3.8571 H   0  0  0  0  0  0  0  0  0  0  0  0
   -4.1278   -1.7518   -3.2079 C   0  0  0  0  0  0  0  0  0  0  0  0
   -4.1739   -2.5144   -3.9917 H   0  0  0  0  0  0  0  0  0  0  0  0
   -5.1383   -1.3602   -3.0516 H   0  0  0  0  0  0  0  0  0  0  0  0
   -3.8372   -2.2627   -2.2695 H   0  0  0  0  0  0  0  0  0  0  0  0
   -3.7808    0.9551   -1.8060 C   0  0  0  0  0  0  0  0  0  0  0  0
   -4.9262    1.3752   -2.4590 C   0  0  0  0  0  0  0  0  0  0  0  0
   -5.1653    1.0393   -3.4654 H   0  0  0  0  0  0  0  0  0  0  0  0
   -5.7745    2.2602   -1.8015 C   0  0  0  0  0  0  0  0  0  0  0  0
   -6.6777    2.6045   -2.3103 H   0  0  0  0  0  0  0  0  0  0  0  0
   -5.4959    2.7156   -0.5162 C   0  0  0  0  0  0  0  0  0  0  0  0
   -6.1796    3.4039   -0.0220 H   0  0  0  0  0  0  0  0  0  0  0  0
   -4.3506    2.2839    0.1254 C   0  0  0  0  0  0  0  0  0  0  0  0
   -4.1359    2.6259    1.1367 H   0  0  0  0  0  0  0  0  0  0  0  0
   -3.4671    1.4123   -0.5140 C   0  0  0  0  0  0  0  0  0  0  0  0
   -1.7882   -2.1325   -0.3695 Cl  0  0  0  0  0  0  0  0  0  0  0  0
   -0.1273    1.6596   -2.2974 Cl  0  0  0  0  0  0  0  0  0  0  0  0
    0.6407   -0.0044    0.5016 P   0  0  0  0  0  0  0  0  0  0  0  0
    1.6824    1.6167    0.4274 C   0  0  0  0  0  0  0  0  0  0  0  0
    1.9172    1.7857   -0.6613 H   0  0  0  0  0  0  0  0  0  0  0  0
    0.8227    2.7924    0.9093 C   0  0  0  0  0  0  0  0  0  0  0  0
   -0.1008    2.8744    0.2877 H   0  0  0  0  0  0  0  0  0  0  0  0
    0.5018    2.6602    1.9612 H   0  0  0  0  0  0  0  0  0  0  0  0
    1.5027   -0.6494    3.2003 C   0  0  0  0  0  0  0  0  0  0  0  0
    1.9100   -1.6246    2.8428 H   0  0  0  0  0  0  0  0  0  0  0  0
    2.3242    0.0962    3.0985 H   0  0  0  0  0  0  0  0  0  0  0  0
    2.9384    4.0445    1.5481 C   0  0  0  0  0  0  0  0  0  0  0  0
    2.7512    3.9557    2.6349 H   0  0  0  0  0  0  0  0  0  0  0  0
    3.4988    4.9880    1.4092 H   0  0  0  0  0  0  0  0  0  0  0  0
    1.9177   -1.3177   -0.0853 C   0  0  0  0  0  0  0  0  0  0  0  0
    2.9417   -0.9395    0.1615 H   0  0  0  0  0  0  0  0  0  0  0  0
    0.2759   -0.2364    2.3781 C   0  0  0  0  0  0  0  0  0  0  0  0
   -0.0656    0.7669    2.7470 H   0  0  0  0  0  0  0  0  0  0  0  0
    3.0099    1.5343    1.1872 C   0  0  0  0  0  0  0  0  0  0  0  0
    2.8441    1.3151    2.2681 H   0  0  0  0  0  0  0  0  0  0  0  0
    3.6416    0.7101    0.7945 H   0  0  0  0  0  0  0  0  0  0  0  0
   -0.0107   -1.7748    4.8951 C   0  0  0  0  0  0  0  0  0  0  0  0
    0.3175   -2.7954    4.6190 H   0  0  0  0  0  0  0  0  0  0  0  0
   -0.2848   -1.8208    5.9655 H   0  0  0  0  0  0  0  0  0  0  0  0
    3.7835    2.8581    1.0646 C   0  0  0  0  0  0  0  0  0  0  0  0
    4.7225    2.7995    1.6450 H   0  0  0  0  0  0  0  0  0  0  0  0
    4.0826    3.0200    0.0105 H   0  0  0  0  0  0  0  0  0  0  0  0
    1.6050    4.1124    0.7922 C   0  0  0  0  0  0  0  0  0  0  0  0
    1.7889    4.3374   -0.2777 H   0  0  0  0  0  0  0  0  0  0  0  0
    0.9908    4.9472    1.1768 H   0  0  0  0  0  0  0  0  0  0  0  0
    1.1410   -0.7826    4.6889 C   0  0  0  0  0  0  0  0  0  0  0  0
    0.8600    0.2068    5.0980 H   0  0  0  0  0  0  0  0  0  0  0  0
    2.0292   -1.1093    5.2611 H   0  0  0  0  0  0  0  0  0  0  0  0
   -0.8722   -1.2371    2.5672 C   0  0  0  0  0  0  0  0  0  0  0  0
   -1.7839   -0.9231    2.0086 H   0  0  0  0  0  0  0  0  0  0  0  0
   -0.6113   -2.2382    2.1626 H   0  0  0  0  0  0  0  0  0  0  0  0
    1.7680   -1.4272   -1.6129 C   0  0  0  0  0  0  0  0  0  0  0  0
    0.7691   -1.8542   -1.8881 H   0  0  0  0  0  0  0  0  0  0  0  0
    1.8403   -0.4383   -2.1177 H   0  0  0  0  0  0  0  0  0  0  0  0
    1.7320   -2.6992    0.5505 C   0  0  0  0  0  0  0  0  0  0  0  0
    0.7178   -3.1027    0.3304 H   0  0  0  0  0  0  0  0  0  0  0  0
    1.8165   -2.6510    1.6603 H   0  0  0  0  0  0  0  0  0  0  0  0
   -1.2322   -1.3784    4.0561 C   0  0  0  0  0  0  0  0  0  0  0  0
   -2.0316   -2.1355    4.1707 H   0  0  0  0  0  0  0  0  0  0  0  0
   -1.6555   -0.4285    4.4336 H   0  0  0  0  0  0  0  0  0  0  0  0
    2.7515   -3.7590   -1.5246 C   0  0  0  0  0  0  0  0  0  0  0  0
    1.8102   -4.2496   -1.8422 H   0  0  0  0  0  0  0  0  0  0  0  0
    3.5719   -4.4045   -1.8888 H   0  0  0  0  0  0  0  0  0  0  0  0
    2.7930   -3.6732    0.0081 C   0  0  0  0  0  0  0  0  0  0  0  0
    3.7998   -3.3540    0.3374 H   0  0  0  0  0  0  0  0  0  0  0  0
    2.6308   -4.6774    0.4431 H   0  0  0  0  0  0  0  0  0  0  0  0
    2.8509   -2.3692   -2.1703 C   0  0  0  0  0  0  0  0  0  0  0  0
    2.7460   -2.4536   -3.2681 H   0  0  0  0  0  0  0  0  0  0  0  0
    3.8541   -1.9387   -1.9910 H   0  0  0  0  0  0  0  0  0  0  0  0
  2  1  1  0  0  0  0
  3  1  2  0  0  0  0
  4  3  1  0  0  0  0
  5  2  1  0  0  0  0
  6  5  1  0  0  0  0
  7  5  1  0  0  0  0
  8  7  1  0  0  0  0
  9  7  1  0  0  0  0
 10  7  1  0  0  0  0
 11  5  1  0  0  0  0
 12 11  1  0  0  0  0
 13 11  1  0  0  0  0
 14 11  1  0  0  0  0
 15  2  1  0  0  0  0
 15 24  1  0  0  0  0
 16 15  2  0  0  0  0
 17 16  1  0  0  0  0
 18 16  1  0  0  0  0
 19 18  1  0  0  0  0
 20 18  2  0  0  0  0
 21 20  1  0  0  0  0
 22 20  1  0  0  0  0
 22 24  2  0  0  0  0
 23 22  1  0  0  0  0
 24  3  1  0  0  0  0
  1 25  1  0  0  0  0
  1 26  1  0  0  0  0
 28 27  1  0  0  0  0
 29 28  1  0  0  0  0
 30 28  1  0  0  0  0
 31 30  1  0  0  0  0
 32 30  1  0  0  0  0
 33 34  1  0  0  0  0
 35 33  1  0  0  0  0
 36 37  1  0  0  0  0
 38 36  1  0  0  0  0
 39 27  1  0  0  0  0
 40 39  1  0  0  0  0
 41 27  1  0  0  0  0
 42 41  1  0  0  0  0
 43 28  1  0  0  0  0
 44 43  1  0  0  0  0
 45 43  1  0  0  0  0
 46 47  1  0  0  0  0
 48 46  1  0  0  0  0
 49 36  1  0  0  0  0
 50 49  1  0  0  0  0
 51 49  1  0  0  0  0
 52 30  1  0  0  0  0
 53 52  1  0  0  0  0
 54 52  1  0  0  0  0
 55 33  1  0  0  0  0
 56 55  1  0  0  0  0
 57 55  1  0  0  0  0
 58 41  1  0  0  0  0
 59 58  1  0  0  0  0
 60 58  1  0  0  0  0
 61 39  1  0  0  0  0
 62 61  1  0  0  0  0
 63 61  1  0  0  0  0
 64 39  1  0  0  0  0
 65 64  1  0  0  0  0
 66 64  1  0  0  0  0
 67 46  1  0  0  0  0
 68 67  1  0  0  0  0
 69 67  1  0  0  0  0
 70 71  1  0  0  0  0
 72 70  1  0  0  0  0
 73 64  1  0  0  0  0
 74 73  1  0  0  0  0
 75 73  1  0  0  0  0
 76 61  1  0  0  0  0
 77 76  1  0  0  0  0
 78 76  1  0  0  0  0
 33 41  1  0  0  0  0
 36 52  1  0  0  0  0
 43 49  1  0  0  0  0
 46 55  1  0  0  0  0
 58 67  1  0  0  0  0
 70 73  1  0  0  0  0
 70 76  1  0  0  0  0
  1 27  1  0  0  0  0
M  END
> <FrozenCore-PM6_ENERGY>
104.721

> <RMSD_CONF_CG-CS>
0.484837

> <RMSD_CONF_GO-CS>
0.000000

> <UID>


> <freeEnergyA>
-2523.95631298

> <freeEnergyF>
-2523.93049153

> <freeEnergyE>
-2523.95631298

> <freeEnergyC>
-2178.69246245

> <freeEnergyL>
-1046.11467745

> <freeEnergyX>
-2257.21976859

> <freeEnergyZ>
-2178.67398195

> <freeEnergyD>
-2178.71156044

> <G_Propene>
-117.738020895

> <G_Ethene>
-78.4716324751

> <G_HoveydaProd>
-502.204109499

> <G_SIMes>
-924.27249048

> <G_HG_RuCl2_SIMes>
-2402.13728523

> <DG_referenceProductionBarrier>
0.01468968

> <hartree_to_kcalmol>
627.49467516

> <DFT_IDENTIFIER>
1707177731826

> <DFT_MACHINE>
158.36.42.38

> <XTB_IDENTIFIER>
NREC

> <XTB_MACHINE>
NREC

> <DE_Synth>
14.5322872308589752

> <DESCRIPTOR_DEFINITION_1>
desc1=( echo "1 * ( e( $hartree_to_kcalmol * ( ( $freeEnergyZ - $freeEnergyD ) - ( $freeEnergyX + 2*$G_Ethene - $freeEnergyD - 2*$G_Propene ) - $DDG_reference_HGII ) / $kT ) ) " | bc -l )

> <DESCRIPTOR_DEFINITION_2>
desc2=$( echo "1 * ( $hartree_to_kcalmol * ( ( $freeEnergyZ - $freeEnergyD ) - ( $freeEnergyX + 2*$G_Ethene - $freeEnergyD - 2*$G_Propene ) ) )" | bc -l )

> <DESCRIPTOR_DEFINITION_3>
desc3=$( echo "1 * $hartree_to_kcalmol * ( $DG_referenceProductionBarrier - ( $freeEnergyX + 2*$G_Ethene - $freeEnergyD - 2*$G_Propene ) )" | bc -l )

> <WEIGHT_DEFINITION_1>
w1=$( echo "1 / ( 1 + e( $hartree_to_kcalmol * ( ( ( $freeEnergyX + 2*$G_Ethene - $freeEnergyD - 2*$G_Propene ) ) - ( $DG_referenceProductionBarrier + $magnitude4 ) ) / $kT ) )" | bc -l )

> <WEIGHT_DEFINITION_2>
w2=$( echo "1 / ( 1 + e( $hartree_to_kcalmol * ( ABS( $freeEnergyC + $G_HoveydaProd - $freeEnergyA - 2*${G_Ethene} - $DG_referencePrecursorStabilityHII ) - ( $DDG_referencePrecursorStability + $magnitude1 ) ) / $kT ) )" | bc -l )

> <WEIGHT_DEFINITION_3>
w3=$( echo "1 / ( 1 + e( $hartree_to_kcalmol * ( ( $freeEnergyE + $G_PCy3 - $G_HI_precursor - $freeEnergyL ) - $magnitude1 ) / $kT ) )" | bc -l )

> <WEIGHT_DEFINITION_4>
w4=$( echo "1 / ( 1 + e( $hartree_to_kcalmol * ( - ( $freeEnergyF - $freeEnergyA ) + $magnitude2 ) / $kT ) )" | bc -l )

> <FITNESS_DEFINITION>
fitness=$( echo "( $desc1 + $desc2 + $desc3 ) * $w1 * $w2 * $w3 * $w4" | bc -l )

> <DESCRIPTOR_1>
.00009157663559563418

> <DESCRIPTOR_2>
8.163580350395503032

> <DESCRIPTOR_3>
0.0000000001

> <WEIGHT_1>
.99898703441314141875

> <WEIGHT_2>
.99998558475667907531

> <WEIGHT_3>
.85144341274077122832

> <WEIGHT_4>
.99999999950747973141

> <FITNESS>
6.94376355798377050820

$$$$
