
  CDK     08132406273D

 55 59  0  0  0  0  0  0  0  0999 V2000
    1.0818   -1.2919   -3.7892 H   0  0  0  0  0  0  0  0  0  0  0  0
    2.3088   -1.3664   -3.7345 C   0  0  0  0  0  0  0  0  0  0  0  0
    2.3471   -1.4574   -4.8414 H   0  0  0  0  0  0  0  0  0  0  0  0
    2.4642   -2.5282   -2.8099 C   0  0  0  0  0  0  0  0  0  0  0  0
    3.3766   -2.5759   -2.1938 H   0  0  0  0  0  0  0  0  0  0  0  0
    2.0988   -3.4977   -3.1926 H   0  0  0  0  0  0  0  0  0  0  0  0
    1.0320   -1.2551   -2.0165 Ru  0  0  0  0  0  0  0  0  0  0  0  0
    2.5374   -0.0987   -3.0214 C   0  0  0  0  0  0  0  0  0  0  0  0
    3.4193   -0.0020   -2.3757 H   0  0  0  0  0  0  0  0  0  0  0  0
    2.1945    0.8292   -3.5107 H   0  0  0  0  0  0  0  0  0  0  0  0
    2.6074   -0.8528   -0.1914 Cl  0  0  0  0  0  0  0  0  0  0  0  0
   -0.7976   -2.4224   -3.0497 Cl  0  0  0  0  0  0  0  0  0  0  0  0
    0.0466   -1.5886   -0.2479 C   0  0  0  0  0  0  0  0  0  0  0  0
   -0.4544   -0.6279    0.5780 N   0  0  0  0  0  0  0  0  0  0  0  0
   -1.3445   -1.2237    1.5977 C   0  0  0  0  0  0  0  0  0  0  0  0
   -0.9216   -2.6928    1.5675 C   0  0  0  0  0  0  0  0  0  0  0  0
   -0.3053   -2.7993    0.2357 N   0  0  0  0  0  0  0  0  0  0  0  0
   -0.1947    0.7769    0.5250 C   0  0  0  0  0  0  0  0  0  0  0  0
    0.2696    3.5622    0.4783 C   0  0  0  0  0  0  0  0  0  0  0  0
   -0.5650    1.5254   -0.6132 C   0  0  0  0  0  0  0  0  0  0  0  0
    0.4577    1.3921    1.6220 C   0  0  0  0  0  0  0  0  0  0  0  0
    0.6631    2.7802    1.5786 C   0  0  0  0  0  0  0  0  0  0  0  0
   -0.3255    2.9107   -0.6132 C   0  0  0  0  0  0  0  0  0  0  0  0
    1.1777    3.2609    2.4254 H   0  0  0  0  0  0  0  0  0  0  0  0
   -0.6148    3.4951   -1.5006 H   0  0  0  0  0  0  0  0  0  0  0  0
   -2.4016   -1.0861    1.2824 H   0  0  0  0  0  0  0  0  0  0  0  0
   -1.2076   -0.7493    2.5844 H   0  0  0  0  0  0  0  0  0  0  0  0
   -0.1614   -2.9341    2.3461 H   0  0  0  0  0  0  0  0  0  0  0  0
   -1.7676   -3.3973    1.6675 H   0  0  0  0  0  0  0  0  0  0  0  0
    0.9899    0.5889    2.7806 C   0  0  0  0  0  0  0  0  0  0  0  0
    1.3878   -0.3834    2.4291 H   0  0  0  0  0  0  0  0  0  0  0  0
    0.2181    0.3938    3.5568 H   0  0  0  0  0  0  0  0  0  0  0  0
    1.8130    1.1353    3.2785 H   0  0  0  0  0  0  0  0  0  0  0  0
   -1.1263    0.8505   -1.8263 C   0  0  0  0  0  0  0  0  0  0  0  0
   -1.8610    0.0570   -1.5982 H   0  0  0  0  0  0  0  0  0  0  0  0
   -0.3037    0.3465   -2.4227 H   0  0  0  0  0  0  0  0  0  0  0  0
   -1.5763    1.5757   -2.5301 H   0  0  0  0  0  0  0  0  0  0  0  0
    0.4866    5.0544    0.4766 C   0  0  0  0  0  0  0  0  0  0  0  0
   -0.2536    5.5670    1.1274 H   0  0  0  0  0  0  0  0  0  0  0  0
    0.3861    5.4801   -0.5403 H   0  0  0  0  0  0  0  0  0  0  0  0
    1.4919    5.3174    0.8628 H   0  0  0  0  0  0  0  0  0  0  0  0
    0.2786   -4.0654   -0.1915 C   0  0  0  0  0  0  0  0  0  0  0  0
    1.1476   -4.3025    0.4630 H   0  0  0  0  0  0  0  0  0  0  0  0
    0.6605   -3.8992   -1.2167 H   0  0  0  0  0  0  0  0  0  0  0  0
   -0.7287   -5.1936   -0.1544 C   0  0  0  0  0  0  0  0  0  0  0  0
   -2.6044   -7.2989   -0.0981 C   0  0  0  0  0  0  0  0  0  0  0  0
   -1.9423   -5.0848   -0.8631 C   0  0  0  0  0  0  0  0  0  0  0  0
   -0.4684   -6.3622    0.5821 C   0  0  0  0  0  0  0  0  0  0  0  0
   -1.3981   -7.4137    0.6075 C   0  0  0  0  0  0  0  0  0  0  0  0
   -2.8732   -6.1312   -0.8320 C   0  0  0  0  0  0  0  0  0  0  0  0
   -2.1363   -4.1724   -1.4467 H   0  0  0  0  0  0  0  0  0  0  0  0
    0.4761   -6.4486    1.1419 H   0  0  0  0  0  0  0  0  0  0  0  0
   -1.1804   -8.3233    1.1862 H   0  0  0  0  0  0  0  0  0  0  0  0
   -3.8156   -6.0385   -1.3917 H   0  0  0  0  0  0  0  0  0  0  0  0
   -3.3365   -8.1193   -0.0770 H   0  0  0  0  0  0  0  0  0  0  0  0
  1  2  1  0  0  0  0
  1  7  1  0  0  0  0
  2  3  1  0  0  0  0
  2  4  1  0  0  0  0
  4  5  1  0  0  0  0
  4  6  1  0  0  0  0
  7  8  1  0  0  0  0
  4  7  1  0  0  0  0
  2  8  1  0  0  0  0
  8  9  1  0  0  0  0
  8 10  1  0  0  0  0
  7 11  1  0  0  0  0
  7 12  1  0  0  0  0
 13 14  1  0  0  0  0
 13 17  1  0  0  0  0
 14 15  1  0  0  0  0
 16 17  1  0  0  0  0
 18 21  2  0  0  0  0
 21 22  1  0  0  0  0
 19 22  2  0  0  0  0
 19 23  1  0  0  0  0
 20 23  2  0  0  0  0
 18 20  1  0  0  0  0
 22 24  1  0  0  0  0
 23 25  1  0  0  0  0
 14 18  1  0  0  0  0
 15 16  1  0  0  0  0
 15 26  1  0  0  0  0
 15 27  1  0  0  0  0
 16 28  1  0  0  0  0
 16 29  1  0  0  0  0
 30 31  1  0  0  0  0
 30 32  1  0  0  0  0
 30 33  1  0  0  0  0
 21 30  1  0  0  0  0
 34 35  1  0  0  0  0
 34 36  1  0  0  0  0
 34 37  1  0  0  0  0
 20 34  1  0  0  0  0
 38 39  1  0  0  0  0
 38 40  1  0  0  0  0
 38 41  1  0  0  0  0
 19 38  1  0  0  0  0
 42 43  1  0  0  0  0
 42 44  1  0  0  0  0
 17 42  1  0  0  0  0
 45 48  2  0  0  0  0
 48 49  1  0  0  0  0
 46 49  2  0  0  0  0
 46 50  1  0  0  0  0
 47 50  2  0  0  0  0
 45 47  1  0  0  0  0
 49 53  1  0  0  0  0
 50 54  1  0  0  0  0
 46 55  1  0  0  0  0
 47 51  1  0  0  0  0
 48 52  1  0  0  0  0
 42 45  1  0  0  0  0
  7 13  1  0  0  0  0
M  END
>  <DFT-ENERGY>
-1978.32632076

$$$$
