
  CDK     08142402053D

 65 68  0  0  0  0  0  0  0  0999 V2000
   -0.1618   -0.9015    1.5026 Ru  0  0  0  0  0  0  0  0  0  0  0  0
   -1.3847   -0.9001    3.0295 C   0  0  0  0  0  0  0  0  0  0  0  0
   -2.3994   -1.2843    2.8215 H   0  0  0  0  0  0  0  0  0  0  0  0
   -0.3569   -2.0368    3.4265 C   0  0  0  0  0  0  0  0  0  0  0  0
   -0.9430   -2.9700    3.5100 H   0  0  0  0  0  0  0  0  0  0  0  0
    0.8141   -2.3372    2.4045 C   0  0  0  0  0  0  0  0  0  0  0  0
    1.8109   -2.0594    2.7914 H   0  0  0  0  0  0  0  0  0  0  0  0
    0.7337   -3.3321    1.9311 H   0  0  0  0  0  0  0  0  0  0  0  0
    0.1262   -1.7053    4.3635 H   0  0  0  0  0  0  0  0  0  0  0  0
   -1.3233   -0.0111    3.6824 H   0  0  0  0  0  0  0  0  0  0  0  0
   -1.5426   -2.5741    0.4910 Cl  0  0  0  0  0  0  0  0  0  0  0  0
    1.2029    0.6691    2.6854 Cl  0  0  0  0  0  0  0  0  0  0  0  0
    0.9684   -0.0373   -1.1810 N   0  0  0  0  0  0  0  0  0  0  0  0
   -0.8029    1.1093   -0.6792 N   0  0  0  0  0  0  0  0  0  0  0  0
    0.0123    0.1169   -0.2214 C   0  0  0  0  0  0  0  0  0  0  0  0
    0.7594    0.8583   -2.2490 C   0  0  0  0  0  0  0  0  0  0  0  0
   -0.3635    1.5854   -1.9307 C   0  0  0  0  0  0  0  0  0  0  0  0
    2.0405   -0.9956   -1.0904 C   0  0  0  0  0  0  0  0  0  0  0  0
    3.2582   -0.5950   -0.4976 C   0  0  0  0  0  0  0  0  0  0  0  0
    4.2751   -1.5600   -0.3943 C   0  0  0  0  0  0  0  0  0  0  0  0
    5.2307   -1.2698    0.0692 H   0  0  0  0  0  0  0  0  0  0  0  0
    4.1072   -2.8722   -0.8713 C   0  0  0  0  0  0  0  0  0  0  0  0
    2.8948   -3.2091   -1.4990 C   0  0  0  0  0  0  0  0  0  0  0  0
    2.7600   -4.2221   -1.9087 H   0  0  0  0  0  0  0  0  0  0  0  0
    1.8431   -2.2855   -1.6303 C   0  0  0  0  0  0  0  0  0  0  0  0
    3.4582    0.8065    0.0083 C   0  0  0  0  0  0  0  0  0  0  0  0
    2.8551    0.9749    0.9276 H   0  0  0  0  0  0  0  0  0  0  0  0
    3.1322    1.5638   -0.7334 H   0  0  0  0  0  0  0  0  0  0  0  0
    4.5222    0.9889    0.2484 H   0  0  0  0  0  0  0  0  0  0  0  0
    5.2004   -3.8977   -0.7054 C   0  0  0  0  0  0  0  0  0  0  0  0
    5.0910   -4.4363    0.2603 H   0  0  0  0  0  0  0  0  0  0  0  0
    6.2037   -3.4287   -0.7050 H   0  0  0  0  0  0  0  0  0  0  0  0
    5.1715   -4.6593   -1.5089 H   0  0  0  0  0  0  0  0  0  0  0  0
    0.5579   -2.6593   -2.3152 C   0  0  0  0  0  0  0  0  0  0  0  0
    0.2416   -1.8891   -3.0479 H   0  0  0  0  0  0  0  0  0  0  0  0
   -0.2642   -2.7533   -1.5719 H   0  0  0  0  0  0  0  0  0  0  0  0
    0.6626   -3.6237   -2.8463 H   0  0  0  0  0  0  0  0  0  0  0  0
   -1.9546    1.5882    0.0422 C   0  0  0  0  0  0  0  0  0  0  0  0
   -1.7908    2.6655    0.9406 C   0  0  0  0  0  0  0  0  0  0  0  0
   -2.9241    3.0876    1.6573 C   0  0  0  0  0  0  0  0  0  0  0  0
   -2.8170    3.9226    2.3669 H   0  0  0  0  0  0  0  0  0  0  0  0
   -4.1814    2.4814    1.4860 C   0  0  0  0  0  0  0  0  0  0  0  0
   -4.3055    1.4466    0.5421 C   0  0  0  0  0  0  0  0  0  0  0  0
   -5.2900    0.9845    0.3707 H   0  0  0  0  0  0  0  0  0  0  0  0
   -3.2069    0.9830   -0.2026 C   0  0  0  0  0  0  0  0  0  0  0  0
   -0.4566    3.3328    1.1276 C   0  0  0  0  0  0  0  0  0  0  0  0
   -0.5643    4.2698    1.7052 H   0  0  0  0  0  0  0  0  0  0  0  0
    0.0240    3.5735    0.1575 H   0  0  0  0  0  0  0  0  0  0  0  0
    0.2399    2.6597    1.6744 H   0  0  0  0  0  0  0  0  0  0  0  0
   -5.3685    2.9259    2.3030 C   0  0  0  0  0  0  0  0  0  0  0  0
   -5.4318    2.3488    3.2505 H   0  0  0  0  0  0  0  0  0  0  0  0
   -6.3207    2.7670    1.7602 H   0  0  0  0  0  0  0  0  0  0  0  0
   -5.2978    3.9965    2.5776 H   0  0  0  0  0  0  0  0  0  0  0  0
   -3.3600   -0.1180   -1.2148 C   0  0  0  0  0  0  0  0  0  0  0  0
   -2.8873   -1.0535   -0.8425 H   0  0  0  0  0  0  0  0  0  0  0  0
   -2.8651    0.1320   -2.1753 H   0  0  0  0  0  0  0  0  0  0  0  0
   -4.4285   -0.3206   -1.4154 H   0  0  0  0  0  0  0  0  0  0  0  0
    1.6663    0.8920   -3.4285 C   0  0  0  0  0  0  0  0  0  0  0  0
    2.7098    1.1284   -3.1346 H   0  0  0  0  0  0  0  0  0  0  0  0
    1.6931   -0.0867   -3.9507 H   0  0  0  0  0  0  0  0  0  0  0  0
    1.3289    1.6588   -4.1499 H   0  0  0  0  0  0  0  0  0  0  0  0
   -1.0822    2.6731   -2.6484 C   0  0  0  0  0  0  0  0  0  0  0  0
   -0.5786    2.8985   -3.6065 H   0  0  0  0  0  0  0  0  0  0  0  0
   -1.1164    3.6052   -2.0475 H   0  0  0  0  0  0  0  0  0  0  0  0
   -2.1332    2.3927   -2.8673 H   0  0  0  0  0  0  0  0  0  0  0  0
  2  4  1  0  0  0  0
  2  1  1  0  0  0  0
  2  3  1  0  0  0  0
  4  6  1  0  0  0  0
  4  5  1  0  0  0  0
  6  1  1  0  0  0  0
  6  8  1  0  0  0  0
  7  6  1  0  0  0  0
  9  4  1  0  0  0  0
 10  2  1  0  0  0  0
  1 11  1  0  0  0  0
  1 12  1  0  0  0  0
 13 15  1  0  0  0  0
 13 16  1  0  0  0  0
 14 15  1  0  0  0  0
 14 17  1  0  0  0  0
 16 17  2  0  0  0  0
 18 19  2  0  0  0  0
 18 25  1  0  0  0  0
 19 20  1  0  0  0  0
 20 21  1  0  0  0  0
 20 22  2  0  0  0  0
 22 23  1  0  0  0  0
 23 24  1  0  0  0  0
 23 25  2  0  0  0  0
 13 18  1  0  0  0  0
 26 27  1  0  0  0  0
 26 28  1  0  0  0  0
 26 29  1  0  0  0  0
 19 26  1  0  0  0  0
 30 31  1  0  0  0  0
 30 32  1  0  0  0  0
 30 33  1  0  0  0  0
 22 30  1  0  0  0  0
 34 35  1  0  0  0  0
 34 36  1  0  0  0  0
 34 37  1  0  0  0  0
 25 34  1  0  0  0  0
 38 39  2  0  0  0  0
 38 45  1  0  0  0  0
 39 40  1  0  0  0  0
 40 41  1  0  0  0  0
 40 42  2  0  0  0  0
 42 43  1  0  0  0  0
 43 44  1  0  0  0  0
 43 45  2  0  0  0  0
 14 38  1  0  0  0  0
 46 47  1  0  0  0  0
 46 48  1  0  0  0  0
 46 49  1  0  0  0  0
 39 46  1  0  0  0  0
 50 51  1  0  0  0  0
 50 52  1  0  0  0  0
 50 53  1  0  0  0  0
 42 50  1  0  0  0  0
 54 55  1  0  0  0  0
 54 56  1  0  0  0  0
 54 57  1  0  0  0  0
 45 54  1  0  0  0  0
 58 59  1  0  0  0  0
 58 60  1  0  0  0  0
 58 61  1  0  0  0  0
 16 58  1  0  0  0  0
 62 63  1  0  0  0  0
 62 64  1  0  0  0  0
 62 65  1  0  0  0  0
 17 62  1  0  0  0  0
  1 15  1  0  0  0  0
M  END
>  <DFT-ENERGY>
-2134.25436816

$$$$
