DMIMes-3_A2
  CDK     08132410183D

 79 83  0  0  0  0  0  0  0  0999 V2000
   -0.3461    1.0269   -0.2011 Ru  0  0  0  0  0  0  0  0  0  0  0  0
   -0.3461    2.8047   -1.5903 O   0  0  0  0  0  0  0  0  0  0  0  0
   -1.2794    2.2371    0.8030 C   0  0  0  0  0  0  0  0  0  0  0  0
   -1.5723    2.0043    1.8257 H   0  0  0  0  0  0  0  0  0  0  0  0
    0.4291    3.0402   -2.8161 C   0  0  0  0  0  0  0  0  0  0  0  0
   -0.2700    3.4524   -3.5741 H   0  0  0  0  0  0  0  0  0  0  0  0
    0.8687    1.6188   -3.1367 C   0  0  0  0  0  0  0  0  0  0  0  0
    1.3670    1.5496   -4.1062 H   0  0  0  0  0  0  0  0  0  0  0  0
    1.5636    1.2287   -2.3647 H   0  0  0  0  0  0  0  0  0  0  0  0
   -0.0033    0.9321   -3.1428 H   0  0  0  0  0  0  0  0  0  0  0  0
    1.5764    3.9771   -2.4817 C   0  0  0  0  0  0  0  0  0  0  0  0
    2.3470    3.9721   -3.2587 H   0  0  0  0  0  0  0  0  0  0  0  0
    1.2482    5.0104   -2.3293 H   0  0  0  0  0  0  0  0  0  0  0  0
    2.0602    3.6552   -1.5382 H   0  0  0  0  0  0  0  0  0  0  0  0
   -1.1445    3.7969   -1.0853 C   0  0  0  0  0  0  0  0  0  0  0  0
   -1.4932    4.9660   -1.7383 C   0  0  0  0  0  0  0  0  0  0  0  0
   -1.1429    5.1847   -2.7441 H   0  0  0  0  0  0  0  0  0  0  0  0
   -2.3243    5.8672   -1.0808 C   0  0  0  0  0  0  0  0  0  0  0  0
   -2.6120    6.7895   -1.5895 H   0  0  0  0  0  0  0  0  0  0  0  0
   -2.7959    5.6172    0.2045 C   0  0  0  0  0  0  0  0  0  0  0  0
   -3.4406    6.3418    0.6986 H   0  0  0  0  0  0  0  0  0  0  0  0
   -2.4356    4.4475    0.8461 C   0  0  0  0  0  0  0  0  0  0  0  0
   -2.7902    4.2543    1.8574 H   0  0  0  0  0  0  0  0  0  0  0  0
   -1.6202    3.5120    0.2067 C   0  0  0  0  0  0  0  0  0  0  0  0
    1.8154    1.6182    0.3514 Cl  0  0  0  0  0  0  0  0  0  0  0  0
   -2.0430    0.2081   -1.5531 Cl  0  0  0  0  0  0  0  0  0  0  0  0
   -0.7964   -0.9237    2.1827 N   0  0  0  0  0  0  0  0  0  0  0  0
    0.3340   -1.7804    0.4815 N   0  0  0  0  0  0  0  0  0  0  0  0
   -0.3014   -0.5915    0.9132 C   0  0  0  0  0  0  0  0  0  0  0  0
   -0.4791   -2.2828    2.5291 C   0  0  0  0  0  0  0  0  0  0  0  0
    0.2244   -2.8141    1.4698 C   0  0  0  0  0  0  0  0  0  0  0  0
   -1.5357   -0.0825    3.0920 C   0  0  0  0  0  0  0  0  0  0  0  0
   -0.8376    0.6682    4.0680 C   0  0  0  0  0  0  0  0  0  0  0  0
   -1.5745    1.3758    5.0241 C   0  0  0  0  0  0  0  0  0  0  0  0
   -1.0525    1.9468    5.7889 H   0  0  0  0  0  0  0  0  0  0  0  0
   -2.9778    1.3650    5.0000 C   0  0  0  0  0  0  0  0  0  0  0  0
   -3.6553    0.6711    3.9876 C   0  0  0  0  0  0  0  0  0  0  0  0
   -4.7423    0.6950    3.9484 H   0  0  0  0  0  0  0  0  0  0  0  0
   -2.9477   -0.0474    3.0158 C   0  0  0  0  0  0  0  0  0  0  0  0
    0.6513    0.7319    4.0416 C   0  0  0  0  0  0  0  0  0  0  0  0
    1.0071    1.0908    3.0507 H   0  0  0  0  0  0  0  0  0  0  0  0
    1.1088   -0.2556    4.1953 H   0  0  0  0  0  0  0  0  0  0  0  0
    1.0687    1.4125    4.7931 H   0  0  0  0  0  0  0  0  0  0  0  0
   -3.7414    2.1184    6.0397 C   0  0  0  0  0  0  0  0  0  0  0  0
   -3.7042    3.2008    5.8433 H   0  0  0  0  0  0  0  0  0  0  0  0
   -3.3290    1.9592    7.0460 H   0  0  0  0  0  0  0  0  0  0  0  0
   -4.8014    1.8346    6.0780 H   0  0  0  0  0  0  0  0  0  0  0  0
   -3.6554   -0.7282    1.8951 C   0  0  0  0  0  0  0  0  0  0  0  0
   -3.4887   -1.8145    1.9009 H   0  0  0  0  0  0  0  0  0  0  0  0
   -3.2774   -0.3591    0.9152 H   0  0  0  0  0  0  0  0  0  0  0  0
   -4.7386   -0.5579    1.8991 H   0  0  0  0  0  0  0  0  0  0  0  0
    1.0219   -2.0037   -0.7704 C   0  0  0  0  0  0  0  0  0  0  0  0
    2.4164   -1.7735   -0.8545 C   0  0  0  0  0  0  0  0  0  0  0  0
    3.0831   -2.0713   -2.0524 C   0  0  0  0  0  0  0  0  0  0  0  0
    4.1533   -1.8879   -2.1226 H   0  0  0  0  0  0  0  0  0  0  0  0
    2.3911   -2.5954   -3.1505 C   0  0  0  0  0  0  0  0  0  0  0  0
    1.0120   -2.8276   -3.0538 C   0  0  0  0  0  0  0  0  0  0  0  0
    0.4719   -3.2331   -3.9070 H   0  0  0  0  0  0  0  0  0  0  0  0
    0.3129   -2.5413   -1.8737 C   0  0  0  0  0  0  0  0  0  0  0  0
    3.2094   -1.2370    0.2886 C   0  0  0  0  0  0  0  0  0  0  0  0
    3.7633   -0.3286   -0.0089 H   0  0  0  0  0  0  0  0  0  0  0  0
    3.9400   -1.9687    0.6542 H   0  0  0  0  0  0  0  0  0  0  0  0
    2.5907   -0.9216    1.1436 H   0  0  0  0  0  0  0  0  0  0  0  0
    3.1083   -2.9120   -4.4226 C   0  0  0  0  0  0  0  0  0  0  0  0
    2.7138   -2.3151   -5.2582 H   0  0  0  0  0  0  0  0  0  0  0  0
    2.9878   -3.9700   -4.6966 H   0  0  0  0  0  0  0  0  0  0  0  0
    4.1864   -2.7135   -4.3659 H   0  0  0  0  0  0  0  0  0  0  0  0
   -1.1496   -2.8263   -1.8222 C   0  0  0  0  0  0  0  0  0  0  0  0
   -1.6377   -2.4588   -0.9058 H   0  0  0  0  0  0  0  0  0  0  0  0
   -1.3574   -3.8998   -1.9069 H   0  0  0  0  0  0  0  0  0  0  0  0
   -1.6788   -2.3153   -2.6469 H   0  0  0  0  0  0  0  0  0  0  0  0
   -0.8872   -2.8890    3.8106 C   0  0  0  0  0  0  0  0  0  0  0  0
   -0.4734   -2.3360    4.6694 H   0  0  0  0  0  0  0  0  0  0  0  0
   -1.9832   -2.8852    3.9274 H   0  0  0  0  0  0  0  0  0  0  0  0
   -0.5492   -3.9313    3.8939 H   0  0  0  0  0  0  0  0  0  0  0  0
    0.7987   -4.1589    1.2760 C   0  0  0  0  0  0  0  0  0  0  0  0
    0.6170   -4.8109    2.1412 H   0  0  0  0  0  0  0  0  0  0  0  0
    1.8888   -4.1104    1.1178 H   0  0  0  0  0  0  0  0  0  0  0  0
    0.3694   -4.6540    0.3892 H   0  0  0  0  0  0  0  0  0  0  0  0
  1  2  1  0  0  0  0
  1  3  2  0  0  0  0
  3  4  1  0  0  0  0
  2  5  1  0  0  0  0
  5  6  1  0  0  0  0
  5  7  1  0  0  0  0
  7  8  1  0  0  0  0
  7  9  1  0  0  0  0
  7 10  1  0  0  0  0
  5 11  1  0  0  0  0
 11 12  1  0  0  0  0
 11 13  1  0  0  0  0
 11 14  1  0  0  0  0
  2 15  1  0  0  0  0
 15 24  1  0  0  0  0
 15 16  2  0  0  0  0
 16 17  1  0  0  0  0
 16 18  1  0  0  0  0
 18 19  1  0  0  0  0
 18 20  2  0  0  0  0
 20 21  1  0  0  0  0
 20 22  1  0  0  0  0
 22 24  2  0  0  0  0
 22 23  1  0  0  0  0
  3 24  1  0  0  0  0
  1 25  1  0  0  0  0
  1 26  1  0  0  0  0
 27 29  1  0  0  0  0
 27 30  1  0  0  0  0
 28 29  1  0  0  0  0
 28 31  1  0  0  0  0
 30 31  2  0  0  0  0
  1 29  1  0  0  0  0
 32 33  2  0  0  0  0
 32 39  1  0  0  0  0
 33 34  1  0  0  0  0
 34 35  1  0  0  0  0
 34 36  2  0  0  0  0
 36 37  1  0  0  0  0
 37 38  1  0  0  0  0
 37 39  2  0  0  0  0
 27 32  1  0  0  0  0
 40 41  1  0  0  0  0
 40 42  1  0  0  0  0
 40 43  1  0  0  0  0
 33 40  1  0  0  0  0
 44 45  1  0  0  0  0
 44 46  1  0  0  0  0
 44 47  1  0  0  0  0
 36 44  1  0  0  0  0
 48 49  1  0  0  0  0
 48 50  1  0  0  0  0
 48 51  1  0  0  0  0
 39 48  1  0  0  0  0
 52 53  2  0  0  0  0
 52 59  1  0  0  0  0
 53 54  1  0  0  0  0
 54 55  1  0  0  0  0
 54 56  2  0  0  0  0
 56 57  1  0  0  0  0
 57 58  1  0  0  0  0
 57 59  2  0  0  0  0
 28 52  1  0  0  0  0
 60 61  1  0  0  0  0
 60 62  1  0  0  0  0
 60 63  1  0  0  0  0
 53 60  1  0  0  0  0
 64 65  1  0  0  0  0
 64 66  1  0  0  0  0
 64 67  1  0  0  0  0
 56 64  1  0  0  0  0
 68 69  1  0  0  0  0
 68 70  1  0  0  0  0
 68 71  1  0  0  0  0
 59 68  1  0  0  0  0
 72 73  1  0  0  0  0
 72 74  1  0  0  0  0
 72 75  1  0  0  0  0
 30 72  1  0  0  0  0
 76 77  1  0  0  0  0
 76 78  1  0  0  0  0
 76 79  1  0  0  0  0
 31 76  1  0  0  0  0
M  END
> <FrozenCore-PM6_ENERGY>
-8.185

> <RMSD_CONF_CG-CS>
2.914436

> <RMSD_CONF_GO-CS>
0.000000

> <UID>


> <DESCRIPTOR_DEFINITION_1>
desc1=( echo "1 * ( e( $hartree_to_kcalmol * ( ( $freeEnergyZ - $freeEnergyD ) - ( $freeEnergyX + 2*$G_Ethene - $freeEnergyD - 2*$G_Propene ) - $DDG_reference_HGII ) / $kT ) ) " | bc -l )

> <DESCRIPTOR_DEFINITION_2>
desc1=( echo "1 * ( e( $hartree_to_kcalmol * ( ( $freeEnergyZ - $freeEnergyD ) - ( $freeEnergyX + 2*$G_Ethene - $freeEnergyD - 2*$G_Propene ) - $DDG_reference_HGII ) / $kT ) ) " | bc -l )

> <DESCRIPTOR_DEFINITION_3>
desc1=( echo "1 * ( e( $hartree_to_kcalmol * ( ( $freeEnergyZ - $freeEnergyD ) - ( $freeEnergyX + 2*$G_Ethene - $freeEnergyD - 2*$G_Propene ) - $DDG_reference_HGII ) / $kT ) ) " | bc -l )

> <WEIGHT_DEFINITION_1>
w1=$( echo "1 / ( 1 + e( $hartree_to_kcalmol * ( ( ( $freeEnergyX + 2*$G_Ethene - $freeEnergyD - 2*$G_Propene ) ) - ( $DG_referenceProductionBarrier + $magnitude4 ) ) / $kT ) )" | bc -l )

> <WEIGHT_DEFINITION_2>
w1=$( echo "1 / ( 1 + e( $hartree_to_kcalmol * ( ( ( $freeEnergyX + 2*$G_Ethene - $freeEnergyD - 2*$G_Propene ) ) - ( $DG_referenceProductionBarrier + $magnitude4 ) ) / $kT ) )" | bc -l )

> <WEIGHT_DEFINITION_3>
w1=$( echo "1 / ( 1 + e( $hartree_to_kcalmol * ( ( ( $freeEnergyX + 2*$G_Ethene - $freeEnergyD - 2*$G_Propene ) ) - ( $DG_referenceProductionBarrier + $magnitude4 ) ) / $kT ) )" | bc -l )

> <WEIGHT_DEFINITION_4>
w1=$( echo "1 / ( 1 + e( $hartree_to_kcalmol * ( ( ( $freeEnergyX + 2*$G_Ethene - $freeEnergyD - 2*$G_Propene ) ) - ( $DG_referenceProductionBarrier + $magnitude4 ) ) / $kT ) )" | bc -l )

> <CALCULATION_OF_OVERALL_FITNESS>
fitness=$( echo "( $desc1 + $desc2 + $desc3 ) * ( $w1 * $w2 * $w3 * $w4 )" | bc -l )

> <freeEnergyA>
-2479.48429613

> <freeEnergyF>
-2479.46599597

> <freeEnergyE>
-2479.48429613

> <freeEnergyC>
-2134.22729503

> <freeEnergyL>
-1001.62019494

> <freeEnergyX>
-2212.76499734

> <freeEnergyZ>
-2134.20852023

> <freeEnergyD>
-2134.25436809

> <G_Propene>
-117.738020895

> <G_Ethene>
-78.4716324751

> <G_HoveydaProd>
-502.204109499

> <G_SIMes>
-924.27249048

> <G_HG_RuCl2_SIMes>
-2402.13728523

> <DG_referenceProductionBarrier>
0.01468968

> <DG_referencePrecursorStabilityHII>
-0.0052201621

> <DG_referencePrecursorStabilityHI>
0.0117775312

> <DDG_referencePrecursorStability>
.0169976933

> <DG_referenceSynt>
0.0226072217

> <hartree_to_kcalmol>
627.49467516

> <boltzmann_constant>
0.0000000000000000000000138066

> <avogadro_number>
602214000000000000000000

> <jmol_to_kcalmol>
0.00023901

> <temp>
313.15

> <kT>
.6223089948281258706000000000

> <magnitude1>
1.43290809

> <magnitude2>
2.86581618

> <magnitude3>
4.29872427

> <magnitude4>
5.73163236

> <DFT_IDENTIFIER>
1723597026205

> <DFT_MACHINE>
158.39.114.73

> <XTB_IDENTIFIER>
1723596435711

> <XTB_MACHINE>
158.39.114.73

> <DESCRIPTOR_1>
4.39830370601344699947

> <DESCRIPTOR_2>
14.871793350353228232

> <DESCRIPTOR_3>
.077705803098438600

> <WEIGHT_1>
.99991173992966757280

> <WEIGHT_2>
.99999998556652998391

> <WEIGHT_3>
.99999999997466496008

> <WEIGHT_4>
.99999903150431372212

> <FITNESS>
19.34607620469304314152

$$$$
