
  CDK     08142400203D

 65 69  0  0  0  0  0  0  0  0999 V2000
    1.1978   -3.2714   -0.6926 H   0  0  0  0  0  0  0  0  0  0  0  0
    2.4117   -3.1555   -0.5278 C   0  0  0  0  0  0  0  0  0  0  0  0
    2.4700   -4.2668   -0.5081 H   0  0  0  0  0  0  0  0  0  0  0  0
    2.4376   -2.3115    0.7037 C   0  0  0  0  0  0  0  0  0  0  0  0
    3.3123   -1.6575    0.8565 H   0  0  0  0  0  0  0  0  0  0  0  0
    2.0233   -2.7642    1.6213 H   0  0  0  0  0  0  0  0  0  0  0  0
    1.0528   -1.5064   -0.5914 Ru  0  0  0  0  0  0  0  0  0  0  0  0
    2.6811   -2.3649   -1.7331 C   0  0  0  0  0  0  0  0  0  0  0  0
    3.5289   -1.6697   -1.7469 H   0  0  0  0  0  0  0  0  0  0  0  0
    2.4015   -2.8095   -2.7037 H   0  0  0  0  0  0  0  0  0  0  0  0
    2.5452    0.3956   -0.8895 Cl  0  0  0  0  0  0  0  0  0  0  0  0
   -0.8045   -2.8753    0.0678 Cl  0  0  0  0  0  0  0  0  0  0  0  0
   -0.5206    0.4500    1.2309 N   0  0  0  0  0  0  0  0  0  0  0  0
   -0.7061    1.0266   -0.8476 N   0  0  0  0  0  0  0  0  0  0  0  0
   -0.1125    0.1037   -0.0293 C   0  0  0  0  0  0  0  0  0  0  0  0
   -1.3519    1.5840    1.2060 C   0  0  0  0  0  0  0  0  0  0  0  0
   -1.4746    1.9468   -0.1154 C   0  0  0  0  0  0  0  0  0  0  0  0
   -0.1782   -0.2641    2.4349 C   0  0  0  0  0  0  0  0  0  0  0  0
   -1.1099   -1.1655    2.9872 C   0  0  0  0  0  0  0  0  0  0  0  0
   -0.7260   -1.8746    4.1412 C   0  0  0  0  0  0  0  0  0  0  0  0
   -1.4350   -2.5972    4.5746 H   0  0  0  0  0  0  0  0  0  0  0  0
    0.5262   -1.6913    4.7464 C   0  0  0  0  0  0  0  0  0  0  0  0
    1.4010   -0.7363    4.1941 C   0  0  0  0  0  0  0  0  0  0  0  0
    2.3730   -0.5481    4.6764 H   0  0  0  0  0  0  0  0  0  0  0  0
    1.0698   -0.0005    3.0456 C   0  0  0  0  0  0  0  0  0  0  0  0
   -2.4940   -1.3548    2.4220 C   0  0  0  0  0  0  0  0  0  0  0  0
   -2.5809   -0.9800    1.3878 H   0  0  0  0  0  0  0  0  0  0  0  0
   -3.2438   -0.8292    3.0529 H   0  0  0  0  0  0  0  0  0  0  0  0
   -2.7652   -2.4272    2.4105 H   0  0  0  0  0  0  0  0  0  0  0  0
    0.9342   -2.4958    5.9551 C   0  0  0  0  0  0  0  0  0  0  0  0
    0.0644   -2.9865    6.4326 H   0  0  0  0  0  0  0  0  0  0  0  0
    1.4355   -1.8628    6.7147 H   0  0  0  0  0  0  0  0  0  0  0  0
    1.6542   -3.2939    5.6746 H   0  0  0  0  0  0  0  0  0  0  0  0
    1.9954    1.0519    2.5035 C   0  0  0  0  0  0  0  0  0  0  0  0
    1.4808    2.0325    2.4188 H   0  0  0  0  0  0  0  0  0  0  0  0
    2.3492    0.8017    1.4806 H   0  0  0  0  0  0  0  0  0  0  0  0
    2.8726    1.1813    3.1648 H   0  0  0  0  0  0  0  0  0  0  0  0
   -0.5885    1.0181   -2.2827 C   0  0  0  0  0  0  0  0  0  0  0  0
   -1.3870    0.1037   -3.0108 C   0  0  0  0  0  0  0  0  0  0  0  0
   -1.2350    0.0729   -4.4065 C   0  0  0  0  0  0  0  0  0  0  0  0
   -1.8470   -0.6349   -4.9870 H   0  0  0  0  0  0  0  0  0  0  0  0
   -0.3421    0.9288   -5.0773 C   0  0  0  0  0  0  0  0  0  0  0  0
    0.3829    1.8611   -4.3190 C   0  0  0  0  0  0  0  0  0  0  0  0
    1.0639    2.5594   -4.8301 H   0  0  0  0  0  0  0  0  0  0  0  0
    0.2748    1.9344   -2.9183 C   0  0  0  0  0  0  0  0  0  0  0  0
   -2.4000   -0.7749   -2.3258 C   0  0  0  0  0  0  0  0  0  0  0  0
   -1.9250   -1.5820   -1.7292 H   0  0  0  0  0  0  0  0  0  0  0  0
   -3.0710   -1.2451   -3.0687 H   0  0  0  0  0  0  0  0  0  0  0  0
   -3.0229   -0.1928   -1.6153 H   0  0  0  0  0  0  0  0  0  0  0  0
   -0.1669    0.8386   -6.5723 C   0  0  0  0  0  0  0  0  0  0  0  0
    0.5547    0.0360   -6.8360 H   0  0  0  0  0  0  0  0  0  0  0  0
    0.2233    1.7840   -6.9963 H   0  0  0  0  0  0  0  0  0  0  0  0
   -1.1211    0.5965   -7.0809 H   0  0  0  0  0  0  0  0  0  0  0  0
    1.0369    2.9961   -2.1688 C   0  0  0  0  0  0  0  0  0  0  0  0
    0.6251    4.0017   -2.4025 H   0  0  0  0  0  0  0  0  0  0  0  0
    2.1009    2.9927   -2.4731 H   0  0  0  0  0  0  0  0  0  0  0  0
    1.0110    2.8404   -1.0771 H   0  0  0  0  0  0  0  0  0  0  0  0
   -1.9086    2.1853    2.4488 C   0  0  0  0  0  0  0  0  0  0  0  0
   -2.6088    1.4968    2.9642 H   0  0  0  0  0  0  0  0  0  0  0  0
   -1.1044    2.4307    3.1723 H   0  0  0  0  0  0  0  0  0  0  0  0
   -2.4545    3.1170    2.2112 H   0  0  0  0  0  0  0  0  0  0  0  0
   -2.2394    3.0414   -0.7730 C   0  0  0  0  0  0  0  0  0  0  0  0
   -2.8665    3.5699   -0.0313 H   0  0  0  0  0  0  0  0  0  0  0  0
   -2.9036    2.6453   -1.5683 H   0  0  0  0  0  0  0  0  0  0  0  0
   -1.5694    3.7855   -1.2501 H   0  0  0  0  0  0  0  0  0  0  0  0
  1  2  1  0  0  0  0
  1  7  1  0  0  0  0
  2  3  1  0  0  0  0
  2  4  1  0  0  0  0
  4  5  1  0  0  0  0
  6  4  1  0  0  0  0
  7  8  1  0  0  0  0
  7  4  1  0  0  0  0
  8  2  1  0  0  0  0
  8  9  1  0  0  0  0
 10  8  1  0  0  0  0
  7 11  1  0  0  0  0
  7 12  1  0  0  0  0
 13 15  1  0  0  0  0
 13 16  1  0  0  0  0
 14 15  1  0  0  0  0
 14 17  1  0  0  0  0
 16 17  2  0  0  0  0
 18 19  2  0  0  0  0
 18 25  1  0  0  0  0
 19 20  1  0  0  0  0
 20 21  1  0  0  0  0
 20 22  2  0  0  0  0
 22 23  1  0  0  0  0
 23 24  1  0  0  0  0
 23 25  2  0  0  0  0
 13 18  1  0  0  0  0
 26 27  1  0  0  0  0
 26 28  1  0  0  0  0
 26 29  1  0  0  0  0
 19 26  1  0  0  0  0
 30 31  1  0  0  0  0
 30 32  1  0  0  0  0
 30 33  1  0  0  0  0
 22 30  1  0  0  0  0
 34 35  1  0  0  0  0
 34 36  1  0  0  0  0
 34 37  1  0  0  0  0
 25 34  1  0  0  0  0
 38 39  2  0  0  0  0
 38 45  1  0  0  0  0
 39 40  1  0  0  0  0
 40 41  1  0  0  0  0
 40 42  2  0  0  0  0
 42 43  1  0  0  0  0
 43 44  1  0  0  0  0
 43 45  2  0  0  0  0
 14 38  1  0  0  0  0
 46 47  1  0  0  0  0
 46 48  1  0  0  0  0
 46 49  1  0  0  0  0
 39 46  1  0  0  0  0
 50 51  1  0  0  0  0
 50 52  1  0  0  0  0
 50 53  1  0  0  0  0
 42 50  1  0  0  0  0
 54 55  1  0  0  0  0
 54 56  1  0  0  0  0
 54 57  1  0  0  0  0
 45 54  1  0  0  0  0
 58 59  1  0  0  0  0
 58 60  1  0  0  0  0
 58 61  1  0  0  0  0
 16 58  1  0  0  0  0
 62 63  1  0  0  0  0
 62 64  1  0  0  0  0
 62 65  1  0  0  0  0
 17 62  1  0  0  0  0
  7 15  1  0  0  0  0
M  END
>  <DFT-ENERGY>
-2134.20851995

$$$$
