CAACEtDIPP-1_A2
  CDK     08122413153D

 87 90  0  0  0  0  0  0  0  0999 V2000
    0.7271   -0.6090   -1.3278 Ru  0  0  0  0  0  0  0  0  0  0  0  0
    2.5049   -0.6090   -2.7170 O   0  0  0  0  0  0  0  0  0  0  0  0
    1.9373    0.3243   -0.3237 C   0  0  0  0  0  0  0  0  0  0  0  0
    1.7045    0.6172    0.6990 H   0  0  0  0  0  0  0  0  0  0  0  0
    2.7404   -1.3842   -3.9428 C   0  0  0  0  0  0  0  0  0  0  0  0
    3.1664   -0.6872   -4.6961 H   0  0  0  0  0  0  0  0  0  0  0  0
    1.3232   -1.8141   -4.2887 C   0  0  0  0  0  0  0  0  0  0  0  0
    0.6451   -0.9369   -4.2989 H   0  0  0  0  0  0  0  0  0  0  0  0
    1.2706   -2.2992   -5.2670 H   0  0  0  0  0  0  0  0  0  0  0  0
    0.9276   -2.5207   -3.5324 H   0  0  0  0  0  0  0  0  0  0  0  0
    3.6664   -2.5395   -3.6054 C   0  0  0  0  0  0  0  0  0  0  0  0
    3.3327   -3.0302   -2.6695 H   0  0  0  0  0  0  0  0  0  0  0  0
    3.6682   -3.3045   -4.3881 H   0  0  0  0  0  0  0  0  0  0  0  0
    4.6996   -2.2177   -3.4381 H   0  0  0  0  0  0  0  0  0  0  0  0
    3.4971    0.1894   -2.2120 C   0  0  0  0  0  0  0  0  0  0  0  0
    4.6662    0.5381   -2.8650 C   0  0  0  0  0  0  0  0  0  0  0  0
    4.8854    0.1864   -3.8705 H   0  0  0  0  0  0  0  0  0  0  0  0
    5.5674    1.3692   -2.2075 C   0  0  0  0  0  0  0  0  0  0  0  0
    6.4904    1.6561   -2.7160 H   0  0  0  0  0  0  0  0  0  0  0  0
    5.3174    1.8408   -0.9222 C   0  0  0  0  0  0  0  0  0  0  0  0
    6.0428    2.4844   -0.4275 H   0  0  0  0  0  0  0  0  0  0  0  0
    4.1477    1.4805   -0.2806 C   0  0  0  0  0  0  0  0  0  0  0  0
    3.9545    1.8351    0.7307 H   0  0  0  0  0  0  0  0  0  0  0  0
    3.2122    0.6651   -0.9200 C   0  0  0  0  0  0  0  0  0  0  0  0
    1.3310   -2.8164   -0.7636 Cl  0  0  0  0  0  0  0  0  0  0  0  0
   -0.1041    1.1137   -2.7004 Cl  0  0  0  0  0  0  0  0  0  0  0  0
   -0.9986   -0.4541   -0.3451 C   0  0  0  0  0  0  0  0  0  0  0  0
   -3.4802   -0.9286   -0.8148 C   0  0  0  0  0  0  0  0  0  0  0  0
   -2.8794    0.8038    0.9019 C   0  0  0  0  0  0  0  0  0  0  0  0
   -3.7937   -0.3951    0.5775 C   0  0  0  0  0  0  0  0  0  0  0  0
   -1.4152    0.4356    0.5962 N   0  0  0  0  0  0  0  0  0  0  0  0
   -2.0453   -1.4937   -0.8586 C   0  0  0  0  0  0  0  0  0  0  0  0
   -3.5911   -0.1323   -1.5776 H   0  0  0  0  0  0  0  0  0  0  0  0
   -3.6761   -1.1934    1.3367 H   0  0  0  0  0  0  0  0  0  0  0  0
   -4.2138   -1.7087   -1.0933 H   0  0  0  0  0  0  0  0  0  0  0  0
   -4.8540   -0.0856    0.6452 H   0  0  0  0  0  0  0  0  0  0  0  0
   -1.7141   -1.9067   -2.3219 C   0  0  0  0  0  0  0  0  0  0  0  0
   -1.8906   -2.7104    0.1062 C   0  0  0  0  0  0  0  0  0  0  0  0
   -3.0625    1.1642    2.3852 C   0  0  0  0  0  0  0  0  0  0  0  0
   -4.1144    1.3877    2.5977 H   0  0  0  0  0  0  0  0  0  0  0  0
   -2.4863    2.0521    2.6768 H   0  0  0  0  0  0  0  0  0  0  0  0
   -2.7571    0.3508    3.0564 H   0  0  0  0  0  0  0  0  0  0  0  0
   -3.2787    2.0032    0.0261 C   0  0  0  0  0  0  0  0  0  0  0  0
   -3.0404    2.9641    0.5096 H   0  0  0  0  0  0  0  0  0  0  0  0
   -4.3525    2.0121   -0.1847 H   0  0  0  0  0  0  0  0  0  0  0  0
   -2.7555    1.9992   -0.9445 H   0  0  0  0  0  0  0  0  0  0  0  0
   -0.4635    1.1416    1.4636 C   0  0  0  0  0  0  0  0  0  0  0  0
    1.1483    2.4661    3.3448 C   0  0  0  0  0  0  0  0  0  0  0  0
   -0.0349    0.4622    2.6378 C   0  0  0  0  0  0  0  0  0  0  0  0
   -0.0457    2.4696    1.2155 C   0  0  0  0  0  0  0  0  0  0  0  0
    0.7517    3.1141    2.1793 C   0  0  0  0  0  0  0  0  0  0  0  0
    0.7685    1.1411    3.5621 C   0  0  0  0  0  0  0  0  0  0  0  0
    1.0691    4.1424    2.0008 H   0  0  0  0  0  0  0  0  0  0  0  0
    1.1040    0.6261    4.4626 H   0  0  0  0  0  0  0  0  0  0  0  0
    1.7603    2.9859    4.0804 H   0  0  0  0  0  0  0  0  0  0  0  0
   -0.3650    3.2444   -0.0519 C   0  0  0  0  0  0  0  0  0  0  0  0
   -0.9922    2.6053   -0.7340 H   0  0  0  0  0  0  0  0  0  0  0  0
   -0.3701   -0.9951    2.9156 C   0  0  0  0  0  0  0  0  0  0  0  0
   -1.1673   -1.3580    2.2020 H   0  0  0  0  0  0  0  0  0  0  0  0
    0.8791   -1.8460    2.6652 C   0  0  0  0  0  0  0  0  0  0  0  0
    1.2425   -1.7134    1.6286 H   0  0  0  0  0  0  0  0  0  0  0  0
    0.6710   -2.9147    2.7872 H   0  0  0  0  0  0  0  0  0  0  0  0
    1.7040   -1.5903    3.3362 H   0  0  0  0  0  0  0  0  0  0  0  0
   -0.9198   -1.1886    4.3344 C   0  0  0  0  0  0  0  0  0  0  0  0
   -0.1684   -0.9701    5.1016 H   0  0  0  0  0  0  0  0  0  0  0  0
   -1.2415   -2.2249    4.4894 H   0  0  0  0  0  0  0  0  0  0  0  0
   -1.7815   -0.5363    4.5195 H   0  0  0  0  0  0  0  0  0  0  0  0
    0.9217    3.5793   -0.8159 C   0  0  0  0  0  0  0  0  0  0  0  0
    1.4747    2.6604   -1.0719 H   0  0  0  0  0  0  0  0  0  0  0  0
    1.5914    4.2376   -0.2589 H   0  0  0  0  0  0  0  0  0  0  0  0
    0.6873    4.0604   -1.7739 H   0  0  0  0  0  0  0  0  0  0  0  0
   -1.1492    4.5236    0.2779 C   0  0  0  0  0  0  0  0  0  0  0  0
   -1.3957    5.0719   -0.6388 H   0  0  0  0  0  0  0  0  0  0  0  0
   -0.5806    5.2042    0.9193 H   0  0  0  0  0  0  0  0  0  0  0  0
   -2.0931    4.2877    0.7906 H   0  0  0  0  0  0  0  0  0  0  0  0
   -0.9507   -3.2504   -0.1469 H   0  0  0  0  0  0  0  0  0  0  0  0
   -1.7363   -2.3362    1.1471 H   0  0  0  0  0  0  0  0  0  0  0  0
   -3.0352   -3.7180    0.1040 C   0  0  0  0  0  0  0  0  0  0  0  0
   -3.2516   -4.0728   -0.9175 H   0  0  0  0  0  0  0  0  0  0  0  0
   -3.9609   -3.3036    0.5152 H   0  0  0  0  0  0  0  0  0  0  0  0
   -2.7721   -4.5981    0.7034 H   0  0  0  0  0  0  0  0  0  0  0  0
   -1.5188   -0.9939   -2.9359 H   0  0  0  0  0  0  0  0  0  0  0  0
   -0.7920   -2.5449   -2.3395 H   0  0  0  0  0  0  0  0  0  0  0  0
   -2.8045   -2.7091   -3.0369 C   0  0  0  0  0  0  0  0  0  0  0  0
   -3.6874   -2.1016   -3.2609 H   0  0  0  0  0  0  0  0  0  0  0  0
   -3.1301   -3.5715   -2.4321 H   0  0  0  0  0  0  0  0  0  0  0  0
   -2.4308   -3.1008   -3.9903 H   0  0  0  0  0  0  0  0  0  0  0  0
  2  1  1  0  0  0  0
  3  1  2  0  0  0  0
  4  3  1  0  0  0  0
  5  2  1  0  0  0  0
  6  5  1  0  0  0  0
  7  5  1  0  0  0  0
  8  7  1  0  0  0  0
  9  7  1  0  0  0  0
 10  7  1  0  0  0  0
 11  5  1  0  0  0  0
 12 11  1  0  0  0  0
 13 11  1  0  0  0  0
 14 11  1  0  0  0  0
 15  2  1  0  0  0  0
 15 24  1  0  0  0  0
 16 15  2  0  0  0  0
 17 16  1  0  0  0  0
 18 16  1  0  0  0  0
 19 18  1  0  0  0  0
 20 18  2  0  0  0  0
 21 20  1  0  0  0  0
 22 20  1  0  0  0  0
 22 24  2  0  0  0  0
 23 22  1  0  0  0  0
 24  3  1  0  0  0  0
  1 25  1  0  0  0  0
  1 26  1  0  0  0  0
 27 31  1  0  0  0  0
 27 32  1  0  0  0  0
 28 33  1  0  0  0  0
 28 35  1  0  0  0  0
 28 30  1  0  0  0  0
 28 32  1  0  0  0  0
 29 31  1  0  0  0  0
 29 30  1  0  0  0  0
 29 39  1  0  0  0  0
 29 43  1  0  0  0  0
 30 34  1  0  0  0  0
 30 36  1  0  0  0  0
 31 47  1  0  0  0  0
 32 37  1  0  0  0  0
 32 38  1  0  0  0  0
 37 82  1  0  0  0  0
 37 83  1  0  0  0  0
 37 84  1  0  0  0  0
 38 76  1  0  0  0  0
 38 77  1  0  0  0  0
 38 78  1  0  0  0  0
 39 40  1  0  0  0  0
 39 41  1  0  0  0  0
 39 42  1  0  0  0  0
 43 44  1  0  0  0  0
 43 45  1  0  0  0  0
 43 46  1  0  0  0  0
 47 50  2  0  0  0  0
 47 49  1  0  0  0  0
 48 51  2  0  0  0  0
 48 52  1  0  0  0  0
 48 55  1  0  0  0  0
 49 52  2  0  0  0  0
 49 58  1  0  0  0  0
 50 51  1  0  0  0  0
 50 56  1  0  0  0  0
 51 53  1  0  0  0  0
 52 54  1  0  0  0  0
 56 57  1  0  0  0  0
 56 68  1  0  0  0  0
 56 72  1  0  0  0  0
 58 59  1  0  0  0  0
 58 60  1  0  0  0  0
 58 64  1  0  0  0  0
 60 61  1  0  0  0  0
 60 62  1  0  0  0  0
 60 63  1  0  0  0  0
 64 65  1  0  0  0  0
 64 66  1  0  0  0  0
 64 67  1  0  0  0  0
 68 69  1  0  0  0  0
 68 70  1  0  0  0  0
 68 71  1  0  0  0  0
 72 73  1  0  0  0  0
 72 74  1  0  0  0  0
 72 75  1  0  0  0  0
 78 79  1  0  0  0  0
 78 80  1  0  0  0  0
 78 81  1  0  0  0  0
 84 85  1  0  0  0  0
 84 86  1  0  0  0  0
 84 87  1  0  0  0  0
  1 27  1  0  0  0  0
M  END
> <FrozenCore-PM6_ENERGY>
-177.227

> <RMSD_CONF_CG-CS>
0.961085

> <RMSD_CONF_GO-CS>
0.000000

> <UID>


> <DESCRIPTOR_DEFINITION_1>
desc1=( echo "1 * ( e( $hartree_to_kcalmol * ( ( $freeEnergyZ - $freeEnergyD ) - ( $freeEnergyX + 2*$G_Ethene - $freeEnergyD - 2*$G_Propene ) - $DDG_reference_HGII ) / $kT ) ) " | bc -l )

> <DESCRIPTOR_DEFINITION_2>
desc1=( echo "1 * ( e( $hartree_to_kcalmol * ( ( $freeEnergyZ - $freeEnergyD ) - ( $freeEnergyX + 2*$G_Ethene - $freeEnergyD - 2*$G_Propene ) - $DDG_reference_HGII ) / $kT ) ) " | bc -l )

> <DESCRIPTOR_DEFINITION_3>
desc1=( echo "1 * ( e( $hartree_to_kcalmol * ( ( $freeEnergyZ - $freeEnergyD ) - ( $freeEnergyX + 2*$G_Ethene - $freeEnergyD - 2*$G_Propene ) - $DDG_reference_HGII ) / $kT ) ) " | bc -l )

> <WEIGHT_DEFINITION_1>
w1=$( echo "1 / ( 1 + e( $hartree_to_kcalmol * ( ( ( $freeEnergyX + 2*$G_Ethene - $freeEnergyD - 2*$G_Propene ) ) - ( $DG_referenceProductionBarrier + $magnitude4 ) ) / $kT ) )" | bc -l )

> <WEIGHT_DEFINITION_2>
w1=$( echo "1 / ( 1 + e( $hartree_to_kcalmol * ( ( ( $freeEnergyX + 2*$G_Ethene - $freeEnergyD - 2*$G_Propene ) ) - ( $DG_referenceProductionBarrier + $magnitude4 ) ) / $kT ) )" | bc -l )

> <WEIGHT_DEFINITION_3>
w1=$( echo "1 / ( 1 + e( $hartree_to_kcalmol * ( ( ( $freeEnergyX + 2*$G_Ethene - $freeEnergyD - 2*$G_Propene ) ) - ( $DG_referenceProductionBarrier + $magnitude4 ) ) / $kT ) )" | bc -l )

> <WEIGHT_DEFINITION_4>
w1=$( echo "1 / ( 1 + e( $hartree_to_kcalmol * ( ( ( $freeEnergyX + 2*$G_Ethene - $freeEnergyD - 2*$G_Propene ) ) - ( $DG_referenceProductionBarrier + $magnitude4 ) ) / $kT ) )" | bc -l )

> <CALCULATION_OF_OVERALL_FITNESS>
fitness=$( echo "( $desc1 + $desc2 + $desc3 ) * ( $w1 * $w2 * $w3 * $w4 )" | bc -l )

> <freeEnergyA>
-2430.1006924

> <freeEnergyF>
-2430.07843062

> <freeEnergyE>
-2430.1006924

> <freeEnergyC>
-2084.84491069

> <freeEnergyL>
-952.237734368

> <freeEnergyX>
-2163.37023816

> <freeEnergyZ>
-2084.81607452

> <freeEnergyD>
-2084.86485008

> <G_Propene>
-117.738020895

> <G_Ethene>
-78.4716324751

> <G_HoveydaProd>
-502.204109499

> <G_SIMes>
-924.27249048

> <G_HG_RuCl2_SIMes>
-2402.13728523

> <DG_referenceProductionBarrier>
0.01468968

> <DG_referencePrecursorStabilityHII>
-0.0052201621

> <DG_referencePrecursorStabilityHI>
0.0117775312

> <DDG_referencePrecursorStability>
.0169976933

> <DG_referenceSynt>
0.0226072217

> <hartree_to_kcalmol>
627.49467516

> <boltzmann_constant>
0.0000000000000000000000138066

> <avogadro_number>
602214000000000000000000

> <jmol_to_kcalmol>
0.00023901

> <temp>
313.15

> <kT>
.6223089948281258706000000000

> <magnitude1>
1.43290809

> <magnitude2>
2.86581618

> <magnitude3>
4.29872427

> <magnitude4>
5.73163236

> <DFT_IDENTIFIER>
1723677019572

> <DFT_MACHINE>
158.39.114.73

> <XTB_IDENTIFIER>
NREC

> <XTB_MACHINE>
NREC

> <DESCRIPTOR_1>
.42676186096439154515

> <DESCRIPTOR_2>
13.420103244210823032

> <DESCRIPTOR_3>
0.0000000001

> <WEIGHT_1>
.98288084687433356960

> <WEIGHT_2>
.99999999577930971301

> <WEIGHT_3>
.99999999991977202154

> <WEIGHT_4>
.99999998216588973300

> <FITNESS>
13.60981819997384116392

$$$$
