
  CDK     08152400073D

 73 75  0  0  0  0  0  0  0  0999 V2000
    2.0025    0.6889   -0.9007 Ru  0  0  0  0  0  0  0  0  0  0  0  0
    3.4771    0.9332   -2.2026 C   0  0  0  0  0  0  0  0  0  0  0  0
    3.1603    1.3323   -3.1818 H   0  0  0  0  0  0  0  0  0  0  0  0
    3.8177    2.0587   -1.1551 C   0  0  0  0  0  0  0  0  0  0  0  0
    3.7591    3.0239   -1.6899 H   0  0  0  0  0  0  0  0  0  0  0  0
    2.8437    2.1659    0.0857 C   0  0  0  0  0  0  0  0  0  0  0  0
    3.3134    1.8712    1.0407 H   0  0  0  0  0  0  0  0  0  0  0  0
    2.2709    3.1076    0.1128 H   0  0  0  0  0  0  0  0  0  0  0  0
    4.8199    1.8235   -0.7523 H   0  0  0  0  0  0  0  0  0  0  0  0
    4.2233    0.1202   -2.2266 H   0  0  0  0  0  0  0  0  0  0  0  0
    0.7590    2.2582   -2.2507 Cl  0  0  0  0  0  0  0  0  0  0  0  0
    3.4766   -0.8137    0.2198 Cl  0  0  0  0  0  0  0  0  0  0  0  0
    0.3372   -0.3364   -0.7823 C   0  0  0  0  0  0  0  0  0  0  0  0
   -1.3723   -1.8091   -1.9885 C   0  0  0  0  0  0  0  0  0  0  0  0
   -2.0609   -0.3843   -0.0363 C   0  0  0  0  0  0  0  0  0  0  0  0
   -2.1015   -1.7922   -0.6524 C   0  0  0  0  0  0  0  0  0  0  0  0
   -0.5852   -0.0064    0.1379 N   0  0  0  0  0  0  0  0  0  0  0  0
    0.1189   -1.4714   -1.8072 C   0  0  0  0  0  0  0  0  0  0  0  0
   -1.8347   -1.0816   -2.6841 H   0  0  0  0  0  0  0  0  0  0  0  0
   -1.6493   -2.5247    0.0473 H   0  0  0  0  0  0  0  0  0  0  0  0
   -1.4706   -2.7987   -2.4712 H   0  0  0  0  0  0  0  0  0  0  0  0
   -3.1653   -2.0801   -0.7761 H   0  0  0  0  0  0  0  0  0  0  0  0
    0.7459   -1.0363   -3.1595 C   0  0  0  0  0  0  0  0  0  0  0  0
    0.8950   -2.6968   -1.1925 C   0  0  0  0  0  0  0  0  0  0  0  0
   -2.7967   -0.3567    1.3045 C   0  0  0  0  0  0  0  0  0  0  0  0
   -3.8716   -0.5404    1.1089 H   0  0  0  0  0  0  0  0  0  0  0  0
   -2.7053    0.6227    1.8072 H   0  0  0  0  0  0  0  0  0  0  0  0
   -2.4383   -1.1308    2.0042 H   0  0  0  0  0  0  0  0  0  0  0  0
   -2.7445    0.5976   -1.0186 C   0  0  0  0  0  0  0  0  0  0  0  0
   -3.0968    1.5084   -0.5105 H   0  0  0  0  0  0  0  0  0  0  0  0
   -3.6334    0.1027   -1.4596 H   0  0  0  0  0  0  0  0  0  0  0  0
   -2.0664    0.9022   -1.8374 H   0  0  0  0  0  0  0  0  0  0  0  0
   -0.1469    0.7719    1.3104 C   0  0  0  0  0  0  0  0  0  0  0  0
    0.6022    2.1315    3.6683 C   0  0  0  0  0  0  0  0  0  0  0  0
    0.5348    0.0630    2.3555 C   0  0  0  0  0  0  0  0  0  0  0  0
   -0.4282    2.1656    1.4440 C   0  0  0  0  0  0  0  0  0  0  0  0
   -0.0368    2.8106    2.6344 C   0  0  0  0  0  0  0  0  0  0  0  0
    0.8866    0.7735    3.5169 C   0  0  0  0  0  0  0  0  0  0  0  0
   -0.2507    3.8827    2.7439 H   0  0  0  0  0  0  0  0  0  0  0  0
    1.4055    0.2423    4.3236 H   0  0  0  0  0  0  0  0  0  0  0  0
    0.8872    2.6594    4.5900 H   0  0  0  0  0  0  0  0  0  0  0  0
   -1.1561    3.0413    0.4278 C   0  0  0  0  0  0  0  0  0  0  0  0
   -1.2358    2.4793   -0.5175 H   0  0  0  0  0  0  0  0  0  0  0  0
    0.9374   -1.4104    2.2909 C   0  0  0  0  0  0  0  0  0  0  0  0
    1.2479   -1.6041    1.2486 H   0  0  0  0  0  0  0  0  0  0  0  0
    2.1671   -1.7376    3.1540 C   0  0  0  0  0  0  0  0  0  0  0  0
    2.9899   -1.0214    2.9766 H   0  0  0  0  0  0  0  0  0  0  0  0
    2.5401   -2.7443    2.8807 H   0  0  0  0  0  0  0  0  0  0  0  0
    1.9244   -1.7610    4.2373 H   0  0  0  0  0  0  0  0  0  0  0  0
   -0.1962   -2.3789    2.6677 C   0  0  0  0  0  0  0  0  0  0  0  0
   -0.6155   -2.1371    3.6666 H   0  0  0  0  0  0  0  0  0  0  0  0
    0.1949   -3.4161    2.7074 H   0  0  0  0  0  0  0  0  0  0  0  0
   -1.0250   -2.3711    1.9381 H   0  0  0  0  0  0  0  0  0  0  0  0
   -0.3917    4.3358    0.0972 C   0  0  0  0  0  0  0  0  0  0  0  0
    0.6070    4.1180   -0.3198 H   0  0  0  0  0  0  0  0  0  0  0  0
   -0.2881    4.9989    0.9802 H   0  0  0  0  0  0  0  0  0  0  0  0
   -0.9475    4.9005   -0.6782 H   0  0  0  0  0  0  0  0  0  0  0  0
   -2.5581    3.4238    0.9460 C   0  0  0  0  0  0  0  0  0  0  0  0
   -3.1212    3.9747    0.1650 H   0  0  0  0  0  0  0  0  0  0  0  0
   -2.4793    4.0878    1.8315 H   0  0  0  0  0  0  0  0  0  0  0  0
   -3.1643    2.5494    1.2523 H   0  0  0  0  0  0  0  0  0  0  0  0
    1.9747   -2.5358   -1.3804 H   0  0  0  0  0  0  0  0  0  0  0  0
    0.8014   -2.6665   -0.0902 H   0  0  0  0  0  0  0  0  0  0  0  0
    0.4683   -4.0989   -1.6404 C   0  0  0  0  0  0  0  0  0  0  0  0
    0.4741   -4.2319   -2.7383 H   0  0  0  0  0  0  0  0  0  0  0  0
   -0.5432   -4.3704   -1.2755 H   0  0  0  0  0  0  0  0  0  0  0  0
    1.1723   -4.8411   -1.2127 H   0  0  0  0  0  0  0  0  0  0  0  0
    0.2686   -0.0837   -3.4648 H   0  0  0  0  0  0  0  0  0  0  0  0
    1.8132   -0.7827   -2.9768 H   0  0  0  0  0  0  0  0  0  0  0  0
    0.6809   -2.0446   -4.3086 C   0  0  0  0  0  0  0  0  0  0  0  0
   -0.3537   -2.3884   -4.5120 H   0  0  0  0  0  0  0  0  0  0  0  0
    1.3075   -2.9389   -4.1252 H   0  0  0  0  0  0  0  0  0  0  0  0
    1.0542   -1.5705   -5.2380 H   0  0  0  0  0  0  0  0  0  0  0  0
  2  4  1  0  0  0  0
  2  1  1  0  0  0  0
  2  3  1  0  0  0  0
  4  6  1  0  0  0  0
  4  5  1  0  0  0  0
  6  1  1  0  0  0  0
  6  8  1  0  0  0  0
  7  6  1  0  0  0  0
  9  4  1  0  0  0  0
 10  2  1  0  0  0  0
  1 11  1  0  0  0  0
  1 12  1  0  0  0  0
 13 17  1  0  0  0  0
 13 18  1  0  0  0  0
 14 19  1  0  0  0  0
 14 21  1  0  0  0  0
 14 16  1  0  0  0  0
 14 18  1  0  0  0  0
 15 17  1  0  0  0  0
 15 16  1  0  0  0  0
 15 25  1  0  0  0  0
 15 29  1  0  0  0  0
 16 20  1  0  0  0  0
 16 22  1  0  0  0  0
 17 33  1  0  0  0  0
 18 23  1  0  0  0  0
 18 24  1  0  0  0  0
 23 68  1  0  0  0  0
 23 69  1  0  0  0  0
 23 70  1  0  0  0  0
 24 62  1  0  0  0  0
 24 63  1  0  0  0  0
 24 64  1  0  0  0  0
 25 26  1  0  0  0  0
 25 27  1  0  0  0  0
 25 28  1  0  0  0  0
 29 30  1  0  0  0  0
 29 31  1  0  0  0  0
 29 32  1  0  0  0  0
 33 36  2  0  0  0  0
 33 35  1  0  0  0  0
 34 37  2  0  0  0  0
 34 38  1  0  0  0  0
 34 41  1  0  0  0  0
 35 38  2  0  0  0  0
 35 44  1  0  0  0  0
 36 37  1  0  0  0  0
 36 42  1  0  0  0  0
 37 39  1  0  0  0  0
 38 40  1  0  0  0  0
 42 43  1  0  0  0  0
 42 54  1  0  0  0  0
 42 58  1  0  0  0  0
 44 45  1  0  0  0  0
 44 46  1  0  0  0  0
 44 50  1  0  0  0  0
 46 47  1  0  0  0  0
 46 48  1  0  0  0  0
 46 49  1  0  0  0  0
 50 51  1  0  0  0  0
 50 52  1  0  0  0  0
 50 53  1  0  0  0  0
 54 55  1  0  0  0  0
 54 56  1  0  0  0  0
 54 57  1  0  0  0  0
 58 59  1  0  0  0  0
 58 60  1  0  0  0  0
 58 61  1  0  0  0  0
 64 65  1  0  0  0  0
 64 66  1  0  0  0  0
 64 67  1  0  0  0  0
 70 71  1  0  0  0  0
 70 72  1  0  0  0  0
 70 73  1  0  0  0  0
  1 13  1  0  0  0  0
M  END
>  <DFT-ENERGY>
-2084.86485015

$$$$
