
  CDK     08142418063D

 55 58  0  0  0  0  0  0  0  0999 V2000
   -1.5441    0.4249    0.5080 Ru  0  0  0  0  0  0  0  0  0  0  0  0
   -3.2999    1.2928    0.3873 C   0  0  0  0  0  0  0  0  0  0  0  0
   -3.3582    2.3306    0.7608 H   0  0  0  0  0  0  0  0  0  0  0  0
   -3.5398    0.2154    1.5231 C   0  0  0  0  0  0  0  0  0  0  0  0
   -3.8380    0.7854    2.4217 H   0  0  0  0  0  0  0  0  0  0  0  0
   -2.2963   -0.6611    1.9514 C   0  0  0  0  0  0  0  0  0  0  0  0
   -2.4122   -1.7338    1.7139 H   0  0  0  0  0  0  0  0  0  0  0  0
   -1.9214   -0.4227    2.9629 H   0  0  0  0  0  0  0  0  0  0  0  0
   -4.3077   -0.4821    1.1428 H   0  0  0  0  0  0  0  0  0  0  0  0
   -3.8627    1.0733   -0.5379 H   0  0  0  0  0  0  0  0  0  0  0  0
   -0.9348    2.1335    2.0703 Cl  0  0  0  0  0  0  0  0  0  0  0  0
   -2.2917   -1.1917   -1.0840 Cl  0  0  0  0  0  0  0  0  0  0  0  0
    0.2463    0.6080   -0.3420 C   0  0  0  0  0  0  0  0  0  0  0  0
    1.2297   -0.3158   -0.2471 N   0  0  0  0  0  0  0  0  0  0  0  0
    2.4803    0.1693   -0.8661 C   0  0  0  0  0  0  0  0  0  0  0  0
    1.9771    1.3541   -1.7084 C   0  0  0  0  0  0  0  0  0  0  0  0
    0.6828    1.6548   -1.0747 N   0  0  0  0  0  0  0  0  0  0  0  0
    1.1264   -1.5046    0.5537 C   0  0  0  0  0  0  0  0  0  0  0  0
    0.8169   -3.8301    2.0982 C   0  0  0  0  0  0  0  0  0  0  0  0
    0.8585   -2.7313   -0.0987 C   0  0  0  0  0  0  0  0  0  0  0  0
    1.3125   -1.4245    1.9530 C   0  0  0  0  0  0  0  0  0  0  0  0
    1.1380   -2.6032    2.7020 C   0  0  0  0  0  0  0  0  0  0  0  0
    0.7019   -3.8767    0.6962 C   0  0  0  0  0  0  0  0  0  0  0  0
    1.2712   -2.5567    3.7941 H   0  0  0  0  0  0  0  0  0  0  0  0
    0.4785   -4.8350    0.2021 H   0  0  0  0  0  0  0  0  0  0  0  0
    2.9520   -0.6273   -1.4713 H   0  0  0  0  0  0  0  0  0  0  0  0
    3.1974    0.4861   -0.0779 H   0  0  0  0  0  0  0  0  0  0  0  0
    2.6463    2.2353   -1.6628 H   0  0  0  0  0  0  0  0  0  0  0  0
    1.8211    1.0830   -2.7758 H   0  0  0  0  0  0  0  0  0  0  0  0
    1.7019   -0.1373    2.6289 C   0  0  0  0  0  0  0  0  0  0  0  0
    0.8875    0.6187    2.5907 H   0  0  0  0  0  0  0  0  0  0  0  0
    2.5871    0.3252    2.1456 H   0  0  0  0  0  0  0  0  0  0  0  0
    1.9551   -0.3179    3.6904 H   0  0  0  0  0  0  0  0  0  0  0  0
    0.7313   -2.7998   -1.5961 C   0  0  0  0  0  0  0  0  0  0  0  0
   -0.1181   -2.1715   -1.9343 H   0  0  0  0  0  0  0  0  0  0  0  0
    0.5491   -3.8390   -1.9275 H   0  0  0  0  0  0  0  0  0  0  0  0
    1.6489   -2.4377   -2.1053 H   0  0  0  0  0  0  0  0  0  0  0  0
    0.5980   -5.0713    2.9261 C   0  0  0  0  0  0  0  0  0  0  0  0
    0.9756   -4.9460    3.9589 H   0  0  0  0  0  0  0  0  0  0  0  0
    1.0990   -5.9526    2.4776 H   0  0  0  0  0  0  0  0  0  0  0  0
   -0.4836   -5.3152    2.9928 H   0  0  0  0  0  0  0  0  0  0  0  0
   -0.1617    2.7508   -1.5314 C   0  0  0  0  0  0  0  0  0  0  0  0
    0.3900    3.7028   -1.3876 H   0  0  0  0  0  0  0  0  0  0  0  0
   -1.0318    2.7789   -0.8423 H   0  0  0  0  0  0  0  0  0  0  0  0
   -0.5885    2.6078   -2.9805 C   0  0  0  0  0  0  0  0  0  0  0  0
   -1.3705    2.3419   -5.6753 C   0  0  0  0  0  0  0  0  0  0  0  0
   -0.3060    3.6251   -3.9087 C   0  0  0  0  0  0  0  0  0  0  0  0
   -1.2639    1.4483   -3.4118 C   0  0  0  0  0  0  0  0  0  0  0  0
   -1.6507    1.3202   -4.7528 C   0  0  0  0  0  0  0  0  0  0  0  0
   -0.6981    3.4969   -5.2504 C   0  0  0  0  0  0  0  0  0  0  0  0
    0.2254    4.5304   -3.5751 H   0  0  0  0  0  0  0  0  0  0  0  0
   -1.4966    0.6394   -2.6992 H   0  0  0  0  0  0  0  0  0  0  0  0
   -2.1815    0.4127   -5.0758 H   0  0  0  0  0  0  0  0  0  0  0  0
   -0.4726    4.3010   -5.9662 H   0  0  0  0  0  0  0  0  0  0  0  0
   -1.6769    2.2372   -6.7264 H   0  0  0  0  0  0  0  0  0  0  0  0
  2  4  1  0  0  0  0
  2  1  1  0  0  0  0
  2  3  1  0  0  0  0
  4  6  1  0  0  0  0
  4  5  1  0  0  0  0
  6  1  1  0  0  0  0
  6  8  1  0  0  0  0
  7  6  1  0  0  0  0
  9  4  1  0  0  0  0
 10  2  1  0  0  0  0
  1 11  1  0  0  0  0
  1 12  1  0  0  0  0
 13 14  1  0  0  0  0
 13 17  1  0  0  0  0
 14 15  1  0  0  0  0
 14 18  1  0  0  0  0
 15 26  1  0  0  0  0
 15 27  1  0  0  0  0
 16 17  1  0  0  0  0
 15 16  1  0  0  0  0
 16 28  1  0  0  0  0
 16 29  1  0  0  0  0
 17 42  1  0  0  0  0
 18 21  2  0  0  0  0
 18 20  1  0  0  0  0
 19 22  2  0  0  0  0
 19 23  1  0  0  0  0
 19 38  1  0  0  0  0
 20 23  2  0  0  0  0
 20 34  1  0  0  0  0
 21 22  1  0  0  0  0
 21 30  1  0  0  0  0
 22 24  1  0  0  0  0
 23 25  1  0  0  0  0
 30 31  1  0  0  0  0
 30 32  1  0  0  0  0
 30 33  1  0  0  0  0
 34 35  1  0  0  0  0
 34 36  1  0  0  0  0
 34 37  1  0  0  0  0
 38 39  1  0  0  0  0
 38 40  1  0  0  0  0
 38 41  1  0  0  0  0
 42 43  1  0  0  0  0
 42 44  1  0  0  0  0
 42 45  1  0  0  0  0
 45 48  2  0  0  0  0
 45 47  1  0  0  0  0
 46 49  2  0  0  0  0
 46 50  1  0  0  0  0
 46 55  1  0  0  0  0
 47 50  2  0  0  0  0
 47 51  1  0  0  0  0
 48 49  1  0  0  0  0
 48 52  1  0  0  0  0
 49 53  1  0  0  0  0
 50 54  1  0  0  0  0
  1 13  1  0  0  0  0
M  END
>  <DFT-ENERGY>
-1978.36862067

$$$$
