SIMesBenzyl-1_A2
  CDK     08142415403D

 69 73  0  0  0  0  0  0  0  0999 V2000
    0.5350    0.4528   -0.6468 Ru  0  0  0  0  0  0  0  0  0  0  0  0
    2.3128    0.4528   -2.0360 O   0  0  0  0  0  0  0  0  0  0  0  0
    1.7452    1.3861    0.3573 C   0  0  0  0  0  0  0  0  0  0  0  0
    1.5124    1.6790    1.3800 H   0  0  0  0  0  0  0  0  0  0  0  0
    2.5483   -0.3224   -3.2618 C   0  0  0  0  0  0  0  0  0  0  0  0
    2.9607    0.3774   -4.0195 H   0  0  0  0  0  0  0  0  0  0  0  0
    1.1272   -0.7621   -3.5850 C   0  0  0  0  0  0  0  0  0  0  0  0
    1.0643   -1.2612   -4.5559 H   0  0  0  0  0  0  0  0  0  0  0  0
    0.7446   -1.4622   -2.8155 H   0  0  0  0  0  0  0  0  0  0  0  0
    0.4468    0.1134   -3.6001 H   0  0  0  0  0  0  0  0  0  0  0  0
    3.4839   -1.4696   -2.9264 C   0  0  0  0  0  0  0  0  0  0  0  0
    4.5182   -1.1432   -2.7762 H   0  0  0  0  0  0  0  0  0  0  0  0
    3.1638   -1.9534   -1.9817 H   0  0  0  0  0  0  0  0  0  0  0  0
    3.4780   -2.2423   -3.7018 H   0  0  0  0  0  0  0  0  0  0  0  0
    3.3050    1.2512   -1.5310 C   0  0  0  0  0  0  0  0  0  0  0  0
    4.4741    1.6001   -2.1840 C   0  0  0  0  0  0  0  0  0  0  0  0
    4.6930    1.2501   -3.1902 H   0  0  0  0  0  0  0  0  0  0  0  0
    5.3753    2.4311   -1.5265 C   0  0  0  0  0  0  0  0  0  0  0  0
    6.2980    2.7190   -2.0355 H   0  0  0  0  0  0  0  0  0  0  0  0
    5.1253    2.9026   -0.2412 C   0  0  0  0  0  0  0  0  0  0  0  0
    5.8500    3.5475    0.2531 H   0  0  0  0  0  0  0  0  0  0  0  0
    3.9556    2.5423    0.4004 C   0  0  0  0  0  0  0  0  0  0  0  0
    3.7624    2.8969    1.4117 H   0  0  0  0  0  0  0  0  0  0  0  0
    3.0201    1.7269   -0.2390 C   0  0  0  0  0  0  0  0  0  0  0  0
    1.1369   -1.7473   -0.0844 Cl  0  0  0  0  0  0  0  0  0  0  0  0
   -0.2901    2.1628   -2.0092 Cl  0  0  0  0  0  0  0  0  0  0  0  0
   -1.0751    0.4288    0.4839 C   0  0  0  0  0  0  0  0  0  0  0  0
   -1.3582    0.8105    1.7839 N   0  0  0  0  0  0  0  0  0  0  0  0
   -2.7768    0.5188    2.2017 C   0  0  0  0  0  0  0  0  0  0  0  0
   -3.4044   -0.0871    0.9294 C   0  0  0  0  0  0  0  0  0  0  0  0
   -2.2656   -0.0738   -0.0461 N   0  0  0  0  0  0  0  0  0  0  0  0
   -0.5012    1.4421    2.7514 C   0  0  0  0  0  0  0  0  0  0  0  0
    0.9667    2.7010    4.7747 C   0  0  0  0  0  0  0  0  0  0  0  0
   -0.3964    2.8543    2.7628 C   0  0  0  0  0  0  0  0  0  0  0  0
    0.1950    0.6546    3.6992 C   0  0  0  0  0  0  0  0  0  0  0  0
    0.9121    1.3005    4.7132 C   0  0  0  0  0  0  0  0  0  0  0  0
    0.3298    3.4692    3.7896 C   0  0  0  0  0  0  0  0  0  0  0  0
    1.4391    0.7076    5.4579 H   0  0  0  0  0  0  0  0  0  0  0  0
    0.4024    4.5543    3.8180 H   0  0  0  0  0  0  0  0  0  0  0  0
   -3.2798    1.4519    2.5236 H   0  0  0  0  0  0  0  0  0  0  0  0
   -2.7849   -0.1856    3.0570 H   0  0  0  0  0  0  0  0  0  0  0  0
   -3.7665   -1.1245    1.0857 H   0  0  0  0  0  0  0  0  0  0  0  0
   -4.2508    0.5151    0.5440 H   0  0  0  0  0  0  0  0  0  0  0  0
    0.1957   -0.8322    3.5940 C   0  0  0  0  0  0  0  0  0  0  0  0
    0.5014   -1.1519    2.5740 H   0  0  0  0  0  0  0  0  0  0  0  0
   -0.7995   -1.2608    3.7698 H   0  0  0  0  0  0  0  0  0  0  0  0
    0.8905   -1.3129    4.2937 H   0  0  0  0  0  0  0  0  0  0  0  0
   -1.0120    3.6633    1.6715 C   0  0  0  0  0  0  0  0  0  0  0  0
   -0.7005    3.2843    0.6730 H   0  0  0  0  0  0  0  0  0  0  0  0
   -0.7290    4.7225    1.7079 H   0  0  0  0  0  0  0  0  0  0  0  0
   -2.1092    3.6144    1.6919 H   0  0  0  0  0  0  0  0  0  0  0  0
    1.7236    3.3627    5.8797 C   0  0  0  0  0  0  0  0  0  0  0  0
    1.3862    3.0097    6.8650 H   0  0  0  0  0  0  0  0  0  0  0  0
    1.6174    4.4553    5.8761 H   0  0  0  0  0  0  0  0  0  0  0  0
    2.7993    3.1427    5.8092 H   0  0  0  0  0  0  0  0  0  0  0  0
   -2.4924   -0.5669   -1.4219 C   0  0  0  0  0  0  0  0  0  0  0  0
   -1.5369   -0.5329   -2.0143 H   0  0  0  0  0  0  0  0  0  0  0  0
   -3.1822    0.1420   -1.9434 H   0  0  0  0  0  0  0  0  0  0  0  0
   -3.0453   -1.9758   -1.4257 C   0  0  0  0  0  0  0  0  0  0  0  0
   -4.0544   -4.5873   -1.4611 C   0  0  0  0  0  0  0  0  0  0  0  0
   -2.2577   -3.0396   -0.9628 C   0  0  0  0  0  0  0  0  0  0  0  0
   -4.3397   -2.2215   -1.9043 C   0  0  0  0  0  0  0  0  0  0  0  0
   -4.8400   -3.5270   -1.9232 C   0  0  0  0  0  0  0  0  0  0  0  0
   -2.7637   -4.3415   -0.9804 C   0  0  0  0  0  0  0  0  0  0  0  0
   -1.2460   -2.8453   -0.5877 H   0  0  0  0  0  0  0  0  0  0  0  0
   -4.9569   -1.4018   -2.2671 H   0  0  0  0  0  0  0  0  0  0  0  0
   -5.8434   -3.7172   -2.3001 H   0  0  0  0  0  0  0  0  0  0  0  0
   -2.1479   -5.1655   -0.6213 H   0  0  0  0  0  0  0  0  0  0  0  0
   -4.4452   -5.6030   -1.4773 H   0  0  0  0  0  0  0  0  0  0  0  0
  1  2  1  0  0  0  0
  1  3  2  0  0  0  0
  3  4  1  0  0  0  0
  2  5  1  0  0  0  0
  5  6  1  0  0  0  0
  5  7  1  0  0  0  0
  7  8  1  0  0  0  0
  7  9  1  0  0  0  0
  7 10  1  0  0  0  0
  5 11  1  0  0  0  0
 11 12  1  0  0  0  0
 11 13  1  0  0  0  0
 11 14  1  0  0  0  0
  2 15  1  0  0  0  0
 15 24  1  0  0  0  0
 15 16  2  0  0  0  0
 16 17  1  0  0  0  0
 16 18  1  0  0  0  0
 18 19  1  0  0  0  0
 18 20  2  0  0  0  0
 20 21  1  0  0  0  0
 20 22  1  0  0  0  0
 22 24  2  0  0  0  0
 22 23  1  0  0  0  0
  3 24  1  0  0  0  0
  1 25  1  0  0  0  0
  1 26  1  0  0  0  0
 27 28  1  0  0  0  0
 27 31  1  0  0  0  0
 28 29  1  0  0  0  0
 28 32  1  0  0  0  0
 29 40  1  0  0  0  0
 29 41  1  0  0  0  0
 30 31  1  0  0  0  0
 29 30  1  0  0  0  0
 30 42  1  0  0  0  0
 30 43  1  0  0  0  0
 31 56  1  0  0  0  0
 32 35  2  0  0  0  0
 32 34  1  0  0  0  0
 33 36  2  0  0  0  0
 33 37  1  0  0  0  0
 33 52  1  0  0  0  0
 34 37  2  0  0  0  0
 34 48  1  0  0  0  0
 35 36  1  0  0  0  0
 35 44  1  0  0  0  0
 36 38  1  0  0  0  0
 37 39  1  0  0  0  0
 44 45  1  0  0  0  0
 44 46  1  0  0  0  0
 44 47  1  0  0  0  0
 48 49  1  0  0  0  0
 48 50  1  0  0  0  0
 48 51  1  0  0  0  0
 52 53  1  0  0  0  0
 52 54  1  0  0  0  0
 52 55  1  0  0  0  0
 56 57  1  0  0  0  0
 56 58  1  0  0  0  0
 56 59  1  0  0  0  0
 59 62  2  0  0  0  0
 59 61  1  0  0  0  0
 60 63  2  0  0  0  0
 60 64  1  0  0  0  0
 60 69  1  0  0  0  0
 61 64  2  0  0  0  0
 61 65  1  0  0  0  0
 62 63  1  0  0  0  0
 62 66  1  0  0  0  0
 63 67  1  0  0  0  0
 64 68  1  0  0  0  0
  1 27  1  0  0  0  0
M  END
> <FrozenCore-PM6_ENERGY>
81.723

> <RMSD_CONF_CG-CS>
0.278622

> <RMSD_CONF_GO-CS>
0.000000

> <UID>


> <DESCRIPTOR_DEFINITION_1>
desc1=( echo "1 * ( e( $hartree_to_kcalmol * ( ( $freeEnergyZ - $freeEnergyD ) - ( $freeEnergyX + 2*$G_Ethene - $freeEnergyD - 2*$G_Propene ) - $DDG_reference_HGII ) / $kT ) ) " | bc -l )

> <DESCRIPTOR_DEFINITION_2>
desc1=( echo "1 * ( e( $hartree_to_kcalmol * ( ( $freeEnergyZ - $freeEnergyD ) - ( $freeEnergyX + 2*$G_Ethene - $freeEnergyD - 2*$G_Propene ) - $DDG_reference_HGII ) / $kT ) ) " | bc -l )

> <DESCRIPTOR_DEFINITION_3>
desc1=( echo "1 * ( e( $hartree_to_kcalmol * ( ( $freeEnergyZ - $freeEnergyD ) - ( $freeEnergyX + 2*$G_Ethene - $freeEnergyD - 2*$G_Propene ) - $DDG_reference_HGII ) / $kT ) ) " | bc -l )

> <WEIGHT_DEFINITION_1>
w1=$( echo "1 / ( 1 + e( $hartree_to_kcalmol * ( ( ( $freeEnergyX + 2*$G_Ethene - $freeEnergyD - 2*$G_Propene ) ) - ( $DG_referenceProductionBarrier + $magnitude4 ) ) / $kT ) )" | bc -l )

> <WEIGHT_DEFINITION_2>
w1=$( echo "1 / ( 1 + e( $hartree_to_kcalmol * ( ( ( $freeEnergyX + 2*$G_Ethene - $freeEnergyD - 2*$G_Propene ) ) - ( $DG_referenceProductionBarrier + $magnitude4 ) ) / $kT ) )" | bc -l )

> <WEIGHT_DEFINITION_3>
w1=$( echo "1 / ( 1 + e( $hartree_to_kcalmol * ( ( ( $freeEnergyX + 2*$G_Ethene - $freeEnergyD - 2*$G_Propene ) ) - ( $DG_referenceProductionBarrier + $magnitude4 ) ) / $kT ) )" | bc -l )

> <WEIGHT_DEFINITION_4>
w1=$( echo "1 / ( 1 + e( $hartree_to_kcalmol * ( ( ( $freeEnergyX + 2*$G_Ethene - $freeEnergyD - 2*$G_Propene ) ) - ( $DG_referenceProductionBarrier + $magnitude4 ) ) / $kT ) )" | bc -l )

> <CALCULATION_OF_OVERALL_FITNESS>
fitness=$( echo "( $desc1 + $desc2 + $desc3 ) * ( $w1 * $w2 * $w3 * $w4 )" | bc -l )

> <freeEnergyA>
-2323.60642678

> <freeEnergyF>
-2323.59487421

> <freeEnergyE>
-2323.60642678

> <freeEnergyC>
-1978.345766

> <freeEnergyL>
-845.741180354

> <freeEnergyX>
-2056.87743179

> <freeEnergyZ>
-1978.32632065

> <freeEnergyD>
-1978.36862059

> <G_Propene>
-117.738020895

> <G_Ethene>
-78.4716324751

> <G_HoveydaProd>
-502.204109499

> <G_SIMes>
-924.27249048

> <G_HG_RuCl2_SIMes>
-2402.13728523

> <DG_referenceProductionBarrier>
0.01468968

> <DG_referencePrecursorStabilityHII>
-0.0052201621

> <DG_referencePrecursorStabilityHI>
0.0117775312

> <DDG_referencePrecursorStability>
.0169976933

> <DG_referenceSynt>
0.0226072217

> <hartree_to_kcalmol>
627.49467516

> <boltzmann_constant>
0.0000000000000000000000138066

> <avogadro_number>
602214000000000000000000

> <jmol_to_kcalmol>
0.00023901

> <temp>
313.15

> <kT>
.6223089948281258706000000000

> <magnitude1>
1.43290809

> <magnitude2>
2.86581618

> <magnitude3>
4.29872427

> <magnitude4>
5.73163236

> <DFT_IDENTIFIER>
1723654821636

> <DFT_MACHINE>
158.39.114.73

> <XTB_IDENTIFIER>
NREC

> <XTB_MACHINE>
NREC

> <DESCRIPTOR_1>
.01965417478808210735

> <DESCRIPTOR_2>
11.504675748284923032

> <DESCRIPTOR_3>
0.0000000001

> <WEIGHT_1>
.99944828922404771850

> <WEIGHT_2>
.99999942191249766792

> <WEIGHT_3>
.99999999999201624222

> <WEIGHT_4>
.99912787334832829875

> <FITNESS>
11.50792004328547857397

$$$$
