
  CDK     08152413343D

 80 84  0  0  0  0  0  0  0  0999 V2000
    1.6448    0.5495   -0.0415 Ru  0  0  0  0  0  0  0  0  0  0  0  0
    3.3022    0.0900   -1.0109 C   0  0  0  0  0  0  0  0  0  0  0  0
    3.3094    0.3719   -2.0772 H   0  0  0  0  0  0  0  0  0  0  0  0
    3.8182    1.2247   -0.0527 C   0  0  0  0  0  0  0  0  0  0  0  0
    4.2028    2.0340   -0.6996 H   0  0  0  0  0  0  0  0  0  0  0  0
    2.7326    1.8937    0.8956 C   0  0  0  0  0  0  0  0  0  0  0  0
    2.9164    1.6910    1.9652 H   0  0  0  0  0  0  0  0  0  0  0  0
    2.5217    2.9445    0.6306 H   0  0  0  0  0  0  0  0  0  0  0  0
    4.5744    0.7689    0.6114 H   0  0  0  0  0  0  0  0  0  0  0  0
    3.6945   -0.9137   -0.7730 H   0  0  0  0  0  0  0  0  0  0  0  0
    1.2379    2.1681   -1.7490 Cl  0  0  0  0  0  0  0  0  0  0  0  0
    2.3083   -1.0122    1.6594 Cl  0  0  0  0  0  0  0  0  0  0  0  0
   -1.2233   -0.0091    0.7507 N   0  0  0  0  0  0  0  0  0  0  0  0
   -2.3711   -0.9569    0.3796 C   0  0  0  0  0  0  0  0  0  0  0  0
   -1.6246   -1.9549   -0.5205 C   0  0  0  0  0  0  0  0  0  0  0  0
   -2.2845   -2.4104   -1.2824 H   0  0  0  0  0  0  0  0  0  0  0  0
   -1.2093   -2.7688    0.1065 H   0  0  0  0  0  0  0  0  0  0  0  0
   -0.4637   -1.1655   -1.1575 C   0  0  0  0  0  0  0  0  0  0  0  0
   -0.1613   -0.1481   -0.0482 C   0  0  0  0  0  0  0  0  0  0  0  0
   -0.8574   -0.4225   -2.4917 C   0  0  0  0  0  0  0  0  0  0  0  0
   -1.0532    0.6525   -2.3211 H   0  0  0  0  0  0  0  0  0  0  0  0
   -1.7882   -0.8873   -2.8731 H   0  0  0  0  0  0  0  0  0  0  0  0
    0.3026   -0.6154   -3.4963 C   0  0  0  0  0  0  0  0  0  0  0  0
    0.8861    0.3248   -3.5866 H   0  0  0  0  0  0  0  0  0  0  0  0
   -0.0652   -0.8820   -4.5080 H   0  0  0  0  0  0  0  0  0  0  0  0
    1.1470   -1.7005   -2.8846 C   0  0  0  0  0  0  0  0  0  0  0  0
    2.2486   -2.3727   -3.4343 C   0  0  0  0  0  0  0  0  0  0  0  0
    2.6054   -2.1724   -4.4546 H   0  0  0  0  0  0  0  0  0  0  0  0
    2.9460   -3.3228   -2.6758 C   0  0  0  0  0  0  0  0  0  0  0  0
    2.5351   -3.6081   -1.3382 C   0  0  0  0  0  0  0  0  0  0  0  0
    1.4073   -2.9634   -0.8067 C   0  0  0  0  0  0  0  0  0  0  0  0
    1.1060   -3.1413    0.2315 H   0  0  0  0  0  0  0  0  0  0  0  0
    0.7347   -2.0045   -1.5793 C   0  0  0  0  0  0  0  0  0  0  0  0
    4.0673   -3.8935   -3.2330 O   0  0  0  0  0  0  0  0  0  0  0  0
    4.0449   -5.3235   -3.3488 C   0  0  0  0  0  0  0  0  0  0  0  0
    4.0021   -5.8176   -2.3575 H   0  0  0  0  0  0  0  0  0  0  0  0
    3.1802   -5.6556   -3.9660 H   0  0  0  0  0  0  0  0  0  0  0  0
    4.9844   -5.5991   -3.8635 H   0  0  0  0  0  0  0  0  0  0  0  0
    3.3194   -4.4908   -0.6429 O   0  0  0  0  0  0  0  0  0  0  0  0
    2.9988   -4.6829    0.7366 C   0  0  0  0  0  0  0  0  0  0  0  0
    2.0079   -5.1754    0.8593 H   0  0  0  0  0  0  0  0  0  0  0  0
    3.7859   -5.3479    1.1354 H   0  0  0  0  0  0  0  0  0  0  0  0
    2.9983   -3.7169    1.2858 H   0  0  0  0  0  0  0  0  0  0  0  0
   -2.9585   -1.6407    1.6102 C   0  0  0  0  0  0  0  0  0  0  0  0
   -3.7582   -2.3327    1.2786 H   0  0  0  0  0  0  0  0  0  0  0  0
   -3.4080   -0.9117    2.3113 H   0  0  0  0  0  0  0  0  0  0  0  0
   -2.1949   -2.2319    2.1458 H   0  0  0  0  0  0  0  0  0  0  0  0
   -3.4763   -0.1867   -0.3501 C   0  0  0  0  0  0  0  0  0  0  0  0
   -3.1025    0.3317   -1.2504 H   0  0  0  0  0  0  0  0  0  0  0  0
   -3.9331    0.5628    0.3240 H   0  0  0  0  0  0  0  0  0  0  0  0
   -4.2713   -0.8939   -0.6589 H   0  0  0  0  0  0  0  0  0  0  0  0
   -1.4548    1.0061    1.7681 C   0  0  0  0  0  0  0  0  0  0  0  0
   -1.3239    0.6688    3.1462 C   0  0  0  0  0  0  0  0  0  0  0  0
   -1.9493    2.2829    1.3721 C   0  0  0  0  0  0  0  0  0  0  0  0
   -1.8280    1.5743    4.0992 C   0  0  0  0  0  0  0  0  0  0  0  0
   -2.4165    2.7834    3.7237 C   0  0  0  0  0  0  0  0  0  0  0  0
   -1.7424    1.3213    5.1654 H   0  0  0  0  0  0  0  0  0  0  0  0
   -2.4398    3.1415    2.3749 C   0  0  0  0  0  0  0  0  0  0  0  0
   -2.8385    4.1227    2.0810 H   0  0  0  0  0  0  0  0  0  0  0  0
   -2.8231    3.4638    4.4861 H   0  0  0  0  0  0  0  0  0  0  0  0
   -0.5596   -0.5427    3.6683 C   0  0  0  0  0  0  0  0  0  0  0  0
   -0.2412   -1.1589    2.8043 H   0  0  0  0  0  0  0  0  0  0  0  0
   -1.3654   -1.4073    4.6538 C   0  0  0  0  0  0  0  0  0  0  0  0
   -0.7693   -2.2938    4.9508 H   0  0  0  0  0  0  0  0  0  0  0  0
   -2.3249   -1.7638    4.2348 H   0  0  0  0  0  0  0  0  0  0  0  0
   -1.5972   -0.8474    5.5831 H   0  0  0  0  0  0  0  0  0  0  0  0
    0.7216   -0.0449    4.3687 C   0  0  0  0  0  0  0  0  0  0  0  0
    0.4691    0.5287    5.2849 H   0  0  0  0  0  0  0  0  0  0  0  0
    1.3200    0.5971    3.6978 H   0  0  0  0  0  0  0  0  0  0  0  0
    1.3585   -0.9039    4.6582 H   0  0  0  0  0  0  0  0  0  0  0  0
   -1.8759    2.8387   -0.0458 C   0  0  0  0  0  0  0  0  0  0  0  0
   -1.4497    2.0645   -0.7123 H   0  0  0  0  0  0  0  0  0  0  0  0
   -0.8965    4.0297   -0.0550 C   0  0  0  0  0  0  0  0  0  0  0  0
   -1.2978    4.8740    0.5429 H   0  0  0  0  0  0  0  0  0  0  0  0
   -0.7295    4.3795   -1.0920 H   0  0  0  0  0  0  0  0  0  0  0  0
    0.0878    3.7399    0.3559 H   0  0  0  0  0  0  0  0  0  0  0  0
   -3.2351    3.2916   -0.6054 C   0  0  0  0  0  0  0  0  0  0  0  0
   -3.9862    2.4800   -0.6208 H   0  0  0  0  0  0  0  0  0  0  0  0
   -3.1097    3.6616   -1.6431 H   0  0  0  0  0  0  0  0  0  0  0  0
   -3.6573    4.1270   -0.0095 H   0  0  0  0  0  0  0  0  0  0  0  0
  2  4  1  0  0  0  0
  2  1  1  0  0  0  0
  2  3  1  0  0  0  0
  4  6  1  0  0  0  0
  4  5  1  0  0  0  0
  6  1  1  0  0  0  0
  6  8  1  0  0  0  0
  7  6  1  0  0  0  0
  9  4  1  0  0  0  0
 10  2  1  0  0  0  0
  1 11  1  0  0  0  0
  1 12  1  0  0  0  0
 13 14  1  0  0  0  0
 13 19  1  0  0  0  0
 14 15  1  0  0  0  0
 15 16  1  0  0  0  0
 15 17  1  0  0  0  0
 15 18  1  0  0  0  0
 18 19  1  0  0  0  0
 18 20  1  0  0  0  0
 18 33  1  0  0  0  0
 20 21  1  0  0  0  0
 20 22  1  0  0  0  0
 20 23  1  0  0  0  0
 23 24  1  0  0  0  0
 23 25  1  0  0  0  0
 23 26  1  0  0  0  0
 26 27  1  0  0  0  0
 26 33  2  0  0  0  0
 27 28  1  0  0  0  0
 27 29  2  0  0  0  0
 29 30  1  0  0  0  0
 29 34  1  0  0  0  0
 30 31  2  0  0  0  0
 30 39  1  0  0  0  0
 31 32  1  0  0  0  0
 31 33  1  0  0  0  0
 34 35  1  0  0  0  0
 35 36  1  0  0  0  0
 35 37  1  0  0  0  0
 35 38  1  0  0  0  0
 39 40  1  0  0  0  0
 40 41  1  0  0  0  0
 40 42  1  0  0  0  0
 40 43  1  0  0  0  0
 44 45  1  0  0  0  0
 44 46  1  0  0  0  0
 44 47  1  0  0  0  0
 14 44  1  0  0  0  0
 48 49  1  0  0  0  0
 48 50  1  0  0  0  0
 48 51  1  0  0  0  0
 14 48  1  0  0  0  0
 52 53  1  0  0  0  0
 52 54  2  0  0  0  0
 53 55  2  0  0  0  0
 55 56  1  0  0  0  0
 55 57  1  0  0  0  0
 56 58  2  0  0  0  0
 58 59  1  0  0  0  0
 54 58  1  0  0  0  0
 13 52  1  0  0  0  0
 56 60  1  0  0  0  0
 61 62  1  0  0  0  0
 61 63  1  0  0  0  0
 63 64  1  0  0  0  0
 63 65  1  0  0  0  0
 63 66  1  0  0  0  0
 61 67  1  0  0  0  0
 67 68  1  0  0  0  0
 67 69  1  0  0  0  0
 67 70  1  0  0  0  0
 53 61  1  0  0  0  0
 71 72  1  0  0  0  0
 71 73  1  0  0  0  0
 73 74  1  0  0  0  0
 73 75  1  0  0  0  0
 73 76  1  0  0  0  0
 71 77  1  0  0  0  0
 77 78  1  0  0  0  0
 77 79  1  0  0  0  0
 77 80  1  0  0  0  0
 54 71  1  0  0  0  0
  1 19  1  0  0  0  0
M  END
>  <DFT-ENERGY>
-2425.51430748

$$$$
