
  CDK     08132417263D

 86 90  0  0  0  0  0  0  0  0999 V2000
   -0.6727   -3.7287   -1.5391 C   0  0  0  0  0  0  0  0  0  0  0  0
    0.2882   -3.7012   -2.0813 H   0  0  0  0  0  0  0  0  0  0  0  0
   -1.2087   -4.6753   -1.7746 H   0  0  0  0  0  0  0  0  0  0  0  0
   -1.3070   -2.9013   -1.9183 H   0  0  0  0  0  0  0  0  0  0  0  0
   -0.4840   -3.6421   -0.0428 C   0  0  0  0  0  0  0  0  0  0  0  0
   -1.4075   -3.7452    0.5572 H   0  0  0  0  0  0  0  0  0  0  0  0
    0.7004   -4.0320    0.6429 C   0  0  0  0  0  0  0  0  0  0  0  0
    1.5992   -4.1909    0.0222 H   0  0  0  0  0  0  0  0  0  0  0  0
    0.6100   -4.7644    1.9609 C   0  0  0  0  0  0  0  0  0  0  0  0
    1.5738   -4.7869    2.5035 H   0  0  0  0  0  0  0  0  0  0  0  0
    0.3132   -5.8167    1.7606 H   0  0  0  0  0  0  0  0  0  0  0  0
   -0.1642   -4.3077    2.6088 H   0  0  0  0  0  0  0  0  0  0  0  0
    1.6277   -2.1302    1.5963 C   0  0  0  0  0  0  0  0  0  0  0  0
    1.4355   -2.3259    2.6713 H   0  0  0  0  0  0  0  0  0  0  0  0
    2.6726   -2.2013    1.2275 H   0  0  0  0  0  0  0  0  0  0  0  0
    0.2667   -1.6503    0.4563 Ru  0  0  0  0  0  0  0  0  0  0  0  0
   -1.2811   -1.7824    2.3054 Cl  0  0  0  0  0  0  0  0  0  0  0  0
    1.8719   -1.7407   -1.3216 Cl  0  0  0  0  0  0  0  0  0  0  0  0
   -0.8172    1.0023   -0.3433 N   0  0  0  0  0  0  0  0  0  0  0  0
   -0.9663    2.4446    0.1392 C   0  0  0  0  0  0  0  0  0  0  0  0
    0.4326    2.6309    0.7482 C   0  0  0  0  0  0  0  0  0  0  0  0
    0.4696    3.4495    1.4906 H   0  0  0  0  0  0  0  0  0  0  0  0
    1.1505    2.8691   -0.0632 H   0  0  0  0  0  0  0  0  0  0  0  0
    0.7831    1.2577    1.3694 C   0  0  0  0  0  0  0  0  0  0  0  0
    0.0317    0.2936    0.4227 C   0  0  0  0  0  0  0  0  0  0  0  0
    0.3515    1.1235    2.8765 C   0  0  0  0  0  0  0  0  0  0  0  0
   -0.5292    0.4640    2.9795 H   0  0  0  0  0  0  0  0  0  0  0  0
    0.0793    2.1284    3.2521 H   0  0  0  0  0  0  0  0  0  0  0  0
    1.5533    0.5511    3.6686 C   0  0  0  0  0  0  0  0  0  0  0  0
    1.3207   -0.4620    4.0591 H   0  0  0  0  0  0  0  0  0  0  0  0
    1.8040    1.1779    4.5497 H   0  0  0  0  0  0  0  0  0  0  0  0
    2.6809    0.5072    2.6697 C   0  0  0  0  0  0  0  0  0  0  0  0
    4.0055    0.0769    2.8526 C   0  0  0  0  0  0  0  0  0  0  0  0
    4.3817   -0.2598    3.8294 H   0  0  0  0  0  0  0  0  0  0  0  0
    4.8929    0.0538    1.7696 C   0  0  0  0  0  0  0  0  0  0  0  0
    4.4560    0.4757    0.4779 C   0  0  0  0  0  0  0  0  0  0  0  0
    3.1340    0.9127    0.3007 C   0  0  0  0  0  0  0  0  0  0  0  0
    2.7690    1.1923   -0.6947 H   0  0  0  0  0  0  0  0  0  0  0  0
    2.2619    0.9229    1.3982 C   0  0  0  0  0  0  0  0  0  0  0  0
    6.1948   -0.3391    1.9936 O   0  0  0  0  0  0  0  0  0  0  0  0
    6.5691   -1.5626    1.3436 C   0  0  0  0  0  0  0  0  0  0  0  0
    5.9284   -2.4052    1.6894 H   0  0  0  0  0  0  0  0  0  0  0  0
    6.5016   -1.4794    0.2399 H   0  0  0  0  0  0  0  0  0  0  0  0
    7.6170   -1.7575    1.6396 H   0  0  0  0  0  0  0  0  0  0  0  0
    5.3913    0.4116   -0.5192 O   0  0  0  0  0  0  0  0  0  0  0  0
    4.9308    0.6823   -1.8439 C   0  0  0  0  0  0  0  0  0  0  0  0
    4.5997    1.7397   -1.9511 H   0  0  0  0  0  0  0  0  0  0  0  0
    5.7991    0.5070   -2.5043 H   0  0  0  0  0  0  0  0  0  0  0  0
    4.0957    0.0058   -2.1233 H   0  0  0  0  0  0  0  0  0  0  0  0
   -1.2856    3.4293   -0.9783 C   0  0  0  0  0  0  0  0  0  0  0  0
   -1.5295    4.4112   -0.5277 H   0  0  0  0  0  0  0  0  0  0  0  0
   -2.1681    3.1010   -1.5630 H   0  0  0  0  0  0  0  0  0  0  0  0
   -0.4365    3.5764   -1.6660 H   0  0  0  0  0  0  0  0  0  0  0  0
   -2.0704    2.5281    1.2094 C   0  0  0  0  0  0  0  0  0  0  0  0
   -1.9767    1.7332    1.9698 H   0  0  0  0  0  0  0  0  0  0  0  0
   -3.0735    2.4549    0.7536 H   0  0  0  0  0  0  0  0  0  0  0  0
   -2.0051    3.5097    1.7200 H   0  0  0  0  0  0  0  0  0  0  0  0
   -1.4904    0.3971   -1.4854 C   0  0  0  0  0  0  0  0  0  0  0  0
   -0.8760    0.4994   -2.7702 C   0  0  0  0  0  0  0  0  0  0  0  0
   -2.7031   -0.3285   -1.3116 C   0  0  0  0  0  0  0  0  0  0  0  0
   -1.4603   -0.1997   -3.8415 C   0  0  0  0  0  0  0  0  0  0  0  0
   -2.6237   -0.9547   -3.6779 C   0  0  0  0  0  0  0  0  0  0  0  0
   -0.9852   -0.1445   -4.8310 H   0  0  0  0  0  0  0  0  0  0  0  0
   -3.2425   -0.9988   -2.4276 C   0  0  0  0  0  0  0  0  0  0  0  0
   -4.1739   -1.5678   -2.3027 H   0  0  0  0  0  0  0  0  0  0  0  0
   -3.0562   -1.4981   -4.5305 H   0  0  0  0  0  0  0  0  0  0  0  0
    0.3266    1.3835   -3.0916 C   0  0  0  0  0  0  0  0  0  0  0  0
    0.7043    1.8025   -2.1378 H   0  0  0  0  0  0  0  0  0  0  0  0
   -0.1059    2.5401   -4.0197 C   0  0  0  0  0  0  0  0  0  0  0  0
    0.7196    3.2723   -4.1355 H   0  0  0  0  0  0  0  0  0  0  0  0
   -1.0010    3.0775   -3.6557 H   0  0  0  0  0  0  0  0  0  0  0  0
   -0.3452    2.1499   -5.0300 H   0  0  0  0  0  0  0  0  0  0  0  0
    1.4848    0.6259   -3.7608 C   0  0  0  0  0  0  0  0  0  0  0  0
    1.1877    0.2374   -4.7568 H   0  0  0  0  0  0  0  0  0  0  0  0
    1.8166   -0.2241   -3.1378 H   0  0  0  0  0  0  0  0  0  0  0  0
    2.3376    1.3174   -3.9230 H   0  0  0  0  0  0  0  0  0  0  0  0
   -3.5043   -0.3482   -0.0178 C   0  0  0  0  0  0  0  0  0  0  0  0
   -2.8429   -0.0201    0.8056 H   0  0  0  0  0  0  0  0  0  0  0  0
   -4.0247   -1.7463    0.3500 C   0  0  0  0  0  0  0  0  0  0  0  0
   -4.8044   -2.0961   -0.3579 H   0  0  0  0  0  0  0  0  0  0  0  0
   -4.4779   -1.7225    1.3603 H   0  0  0  0  0  0  0  0  0  0  0  0
   -3.2058   -2.4867    0.3788 H   0  0  0  0  0  0  0  0  0  0  0  0
   -4.6956    0.6235   -0.1463 C   0  0  0  0  0  0  0  0  0  0  0  0
   -4.3846    1.6306   -0.4881 H   0  0  0  0  0  0  0  0  0  0  0  0
   -5.2211    0.7310    0.8245 H   0  0  0  0  0  0  0  0  0  0  0  0
   -5.4271    0.2427   -0.8891 H   0  0  0  0  0  0  0  0  0  0  0  0
  1  2  1  0  0  0  0
  1  5  1  0  0  0  0
  3  1  1  0  0  0  0
  4  1  1  0  0  0  0
  5  6  1  0  0  0  0
  5 16  1  0  0  0  0
  5  7  1  0  0  0  0
  7  9  1  0  0  0  0
  7  8  1  0  0  0  0
  9 10  1  0  0  0  0
 11  9  1  0  0  0  0
 12  9  1  0  0  0  0
 13 14  1  0  0  0  0
 13 15  1  0  0  0  0
 13  7  1  0  0  0  0
 16 13  1  0  0  0  0
 16 17  1  0  0  0  0
 16 18  1  0  0  0  0
 19 20  1  0  0  0  0
 19 25  1  0  0  0  0
 20 21  1  0  0  0  0
 21 22  1  0  0  0  0
 21 23  1  0  0  0  0
 21 24  1  0  0  0  0
 24 25  1  0  0  0  0
 24 26  1  0  0  0  0
 24 39  1  0  0  0  0
 26 27  1  0  0  0  0
 26 28  1  0  0  0  0
 26 29  1  0  0  0  0
 29 30  1  0  0  0  0
 29 31  1  0  0  0  0
 29 32  1  0  0  0  0
 32 33  1  0  0  0  0
 32 39  2  0  0  0  0
 33 34  1  0  0  0  0
 33 35  2  0  0  0  0
 35 36  1  0  0  0  0
 35 40  1  0  0  0  0
 36 37  2  0  0  0  0
 36 45  1  0  0  0  0
 37 38  1  0  0  0  0
 37 39  1  0  0  0  0
 40 41  1  0  0  0  0
 41 42  1  0  0  0  0
 41 43  1  0  0  0  0
 41 44  1  0  0  0  0
 45 46  1  0  0  0  0
 46 47  1  0  0  0  0
 46 48  1  0  0  0  0
 46 49  1  0  0  0  0
 50 51  1  0  0  0  0
 50 52  1  0  0  0  0
 50 53  1  0  0  0  0
 20 50  1  0  0  0  0
 54 55  1  0  0  0  0
 54 56  1  0  0  0  0
 54 57  1  0  0  0  0
 20 54  1  0  0  0  0
 58 59  1  0  0  0  0
 58 60  2  0  0  0  0
 59 61  2  0  0  0  0
 61 62  1  0  0  0  0
 61 63  1  0  0  0  0
 62 64  2  0  0  0  0
 64 65  1  0  0  0  0
 60 64  1  0  0  0  0
 19 58  1  0  0  0  0
 62 66  1  0  0  0  0
 67 68  1  0  0  0  0
 67 69  1  0  0  0  0
 69 70  1  0  0  0  0
 69 71  1  0  0  0  0
 69 72  1  0  0  0  0
 67 73  1  0  0  0  0
 73 74  1  0  0  0  0
 73 75  1  0  0  0  0
 73 76  1  0  0  0  0
 59 67  1  0  0  0  0
 77 78  1  0  0  0  0
 77 79  1  0  0  0  0
 79 80  1  0  0  0  0
 79 81  1  0  0  0  0
 79 82  1  0  0  0  0
 77 83  1  0  0  0  0
 83 84  1  0  0  0  0
 83 85  1  0  0  0  0
 83 86  1  0  0  0  0
 60 77  1  0  0  0  0
 16 25  1  0  0  0  0
M  END
>  <DFT-ENERGY>
-2504.01939548

$$$$
