
  CDK     08132404553D

 73 76  0  0  0  0  0  0  0  0999 V2000
   -3.8392   -0.1023   -1.9595 C   0  0  0  0  0  0  0  0  0  0  0  0
   -3.7164    0.9615   -2.2297 H   0  0  0  0  0  0  0  0  0  0  0  0
   -4.8459   -0.4535   -2.2791 H   0  0  0  0  0  0  0  0  0  0  0  0
   -3.0995   -0.6919   -2.5380 H   0  0  0  0  0  0  0  0  0  0  0  0
   -3.6962   -0.3297   -0.4719 C   0  0  0  0  0  0  0  0  0  0  0  0
   -3.7641   -1.3824   -0.1378 H   0  0  0  0  0  0  0  0  0  0  0  0
   -4.1101    0.6252    0.4940 C   0  0  0  0  0  0  0  0  0  0  0  0
   -4.3113    1.6445    0.1193 H   0  0  0  0  0  0  0  0  0  0  0  0
   -4.8237    0.1822    1.7509 C   0  0  0  0  0  0  0  0  0  0  0  0
   -4.8770    0.9779    2.5175 H   0  0  0  0  0  0  0  0  0  0  0  0
   -5.8660   -0.0955    1.4827 H   0  0  0  0  0  0  0  0  0  0  0  0
   -4.3304   -0.7111    2.1825 H   0  0  0  0  0  0  0  0  0  0  0  0
   -2.2562    1.3869    1.6636 C   0  0  0  0  0  0  0  0  0  0  0  0
   -2.4320    0.9790    2.6827 H   0  0  0  0  0  0  0  0  0  0  0  0
   -2.3760    2.4853    1.5305 H   0  0  0  0  0  0  0  0  0  0  0  0
   -1.7291    0.3114    0.2793 Ru  0  0  0  0  0  0  0  0  0  0  0  0
   -1.8003   -1.6938    1.6051 Cl  0  0  0  0  0  0  0  0  0  0  0  0
   -1.6291    2.1873   -1.2140 Cl  0  0  0  0  0  0  0  0  0  0  0  0
    0.2519    0.1919    0.2578 C   0  0  0  0  0  0  0  0  0  0  0  0
    1.1680    0.6454    1.1519 N   0  0  0  0  0  0  0  0  0  0  0  0
    2.5406    0.4075    0.6552 C   0  0  0  0  0  0  0  0  0  0  0  0
    2.3141   -0.6657   -0.4200 C   0  0  0  0  0  0  0  0  0  0  0  0
    0.8970   -0.4512   -0.7445 N   0  0  0  0  0  0  0  0  0  0  0  0
    2.9533    1.3434    0.2206 H   0  0  0  0  0  0  0  0  0  0  0  0
    3.2037    0.0732    1.4737 H   0  0  0  0  0  0  0  0  0  0  0  0
    2.4724   -1.6928   -0.0213 H   0  0  0  0  0  0  0  0  0  0  0  0
    2.9623   -0.5253   -1.3054 H   0  0  0  0  0  0  0  0  0  0  0  0
    0.8845    1.4488    2.3082 C   0  0  0  0  0  0  0  0  0  0  0  0
    0.3537    2.9851    4.5790 C   0  0  0  0  0  0  0  0  0  0  0  0
    0.7794    2.8579    2.1751 C   0  0  0  0  0  0  0  0  0  0  0  0
    0.7380    0.7970    3.5607 C   0  0  0  0  0  0  0  0  0  0  0  0
    0.4697    1.5949    4.6879 C   0  0  0  0  0  0  0  0  0  0  0  0
    0.5097    3.6069    3.3358 C   0  0  0  0  0  0  0  0  0  0  0  0
    0.3466    1.1143    5.6683 H   0  0  0  0  0  0  0  0  0  0  0  0
    0.4201    4.6995    3.2594 H   0  0  0  0  0  0  0  0  0  0  0  0
    0.1407    3.5901    5.4727 H   0  0  0  0  0  0  0  0  0  0  0  0
    0.9076   -0.7082    3.7092 C   0  0  0  0  0  0  0  0  0  0  0  0
    0.7377   -1.1596    2.7121 H   0  0  0  0  0  0  0  0  0  0  0  0
    1.0030    3.5672    0.8467 C   0  0  0  0  0  0  0  0  0  0  0  0
    0.8601    2.8253    0.0355 H   0  0  0  0  0  0  0  0  0  0  0  0
   -0.1172   -1.3358    4.6636 C   0  0  0  0  0  0  0  0  0  0  0  0
   -1.1496   -1.0943    4.3481 H   0  0  0  0  0  0  0  0  0  0  0  0
    0.0313   -1.0062    5.7132 H   0  0  0  0  0  0  0  0  0  0  0  0
   -0.0160   -2.4395    4.6475 H   0  0  0  0  0  0  0  0  0  0  0  0
    2.3417   -1.0359    4.1689 C   0  0  0  0  0  0  0  0  0  0  0  0
    2.4936   -2.1335    4.2250 H   0  0  0  0  0  0  0  0  0  0  0  0
    2.5391   -0.6127    5.1763 H   0  0  0  0  0  0  0  0  0  0  0  0
    3.1074   -0.6181    3.4841 H   0  0  0  0  0  0  0  0  0  0  0  0
   -0.0052    4.6966    0.5915 C   0  0  0  0  0  0  0  0  0  0  0  0
   -1.0447    4.3228    0.6425 H   0  0  0  0  0  0  0  0  0  0  0  0
    0.1432    5.1060   -0.4273 H   0  0  0  0  0  0  0  0  0  0  0  0
    0.1185    5.5347    1.3086 H   0  0  0  0  0  0  0  0  0  0  0  0
    2.4421    4.1172    0.7822 C   0  0  0  0  0  0  0  0  0  0  0  0
    2.6412    4.5759   -0.2080 H   0  0  0  0  0  0  0  0  0  0  0  0
    3.2019    3.3290    0.9574 H   0  0  0  0  0  0  0  0  0  0  0  0
    2.5975    4.8976    1.5565 H   0  0  0  0  0  0  0  0  0  0  0  0
    0.1450   -1.2241   -1.7336 C   0  0  0  0  0  0  0  0  0  0  0  0
   -0.2466   -1.6924   -4.1816 C   0  0  0  0  0  0  0  0  0  0  0  0
   -0.7600   -3.4647   -2.4445 C   0  0  0  0  0  0  0  0  0  0  0  0
   -0.2901   -3.1966   -3.8805 C   0  0  0  0  0  0  0  0  0  0  0  0
    0.1092   -2.7254   -1.4189 C   0  0  0  0  0  0  0  0  0  0  0  0
    0.6168   -0.9347   -3.1635 C   0  0  0  0  0  0  0  0  0  0  0  0
   -1.2809   -1.2812   -4.1514 H   0  0  0  0  0  0  0  0  0  0  0  0
   -1.8148   -3.1262   -2.3306 H   0  0  0  0  0  0  0  0  0  0  0  0
    0.7281   -3.6269   -4.0178 H   0  0  0  0  0  0  0  0  0  0  0  0
    1.1460   -3.1295   -1.4551 H   0  0  0  0  0  0  0  0  0  0  0  0
    1.6781   -1.2554   -3.2676 H   0  0  0  0  0  0  0  0  0  0  0  0
   -0.9002   -0.8285   -1.6609 H   0  0  0  0  0  0  0  0  0  0  0  0
    0.1299   -1.5080   -5.2086 H   0  0  0  0  0  0  0  0  0  0  0  0
   -0.7591   -4.5525   -2.2276 H   0  0  0  0  0  0  0  0  0  0  0  0
   -0.9498   -3.7146   -4.6071 H   0  0  0  0  0  0  0  0  0  0  0  0
   -0.2778   -2.8662   -0.3887 H   0  0  0  0  0  0  0  0  0  0  0  0
    0.5795    0.1589   -3.3415 H   0  0  0  0  0  0  0  0  0  0  0  0
  1  2  1  0  0  0  0
  1  5  1  0  0  0  0
  1  3  1  0  0  0  0
  1  4  1  0  0  0  0
  5  6  1  0  0  0  0
  5 16  1  0  0  0  0
  5  7  1  0  0  0  0
  7  9  1  0  0  0  0
  7  8  1  0  0  0  0
  9 10  1  0  0  0  0
  9 11  1  0  0  0  0
  9 12  1  0  0  0  0
 13 14  1  0  0  0  0
 13 15  1  0  0  0  0
  7 13  1  0  0  0  0
 13 16  1  0  0  0  0
 16 17  1  0  0  0  0
 16 18  1  0  0  0  0
 19 20  1  0  0  0  0
 19 23  1  0  0  0  0
 20 21  1  0  0  0  0
 20 28  1  0  0  0  0
 21 24  1  0  0  0  0
 21 25  1  0  0  0  0
 21 22  1  0  0  0  0
 22 26  1  0  0  0  0
 22 27  1  0  0  0  0
 22 23  1  0  0  0  0
 23 57  1  0  0  0  0
 28 31  2  0  0  0  0
 28 30  1  0  0  0  0
 29 32  2  0  0  0  0
 29 33  1  0  0  0  0
 29 36  1  0  0  0  0
 30 33  2  0  0  0  0
 30 39  1  0  0  0  0
 31 32  1  0  0  0  0
 31 37  1  0  0  0  0
 32 34  1  0  0  0  0
 33 35  1  0  0  0  0
 37 38  1  0  0  0  0
 37 41  1  0  0  0  0
 37 45  1  0  0  0  0
 39 40  1  0  0  0  0
 39 49  1  0  0  0  0
 39 53  1  0  0  0  0
 41 42  1  0  0  0  0
 41 43  1  0  0  0  0
 41 44  1  0  0  0  0
 45 46  1  0  0  0  0
 45 47  1  0  0  0  0
 45 48  1  0  0  0  0
 49 50  1  0  0  0  0
 49 51  1  0  0  0  0
 49 52  1  0  0  0  0
 53 54  1  0  0  0  0
 53 55  1  0  0  0  0
 53 56  1  0  0  0  0
 57 68  1  0  0  0  0
 57 61  1  0  0  0  0
 57 62  1  0  0  0  0
 58 63  1  0  0  0  0
 58 69  1  0  0  0  0
 58 60  1  0  0  0  0
 58 62  1  0  0  0  0
 59 64  1  0  0  0  0
 59 70  1  0  0  0  0
 59 61  1  0  0  0  0
 59 60  1  0  0  0  0
 60 65  1  0  0  0  0
 60 71  1  0  0  0  0
 61 66  1  0  0  0  0
 61 72  1  0  0  0  0
 62 67  1  0  0  0  0
 62 73  1  0  0  0  0
 16 19  1  0  0  0  0
M  END
>  <DFT-ENERGY>
-2138.98967307

$$$$
