CyDIPP-1_A1
  CDK     08122414123D

 81 85  0  0  0  0  0  0  0  0999 V2000
    0.6990    0.2517   -0.9637 Ru  0  0  0  0  0  0  0  0  0  0  0  0
    2.4768    0.2517   -2.3529 O   0  0  0  0  0  0  0  0  0  0  0  0
    1.9092   -0.6816    0.0404 C   0  0  0  0  0  0  0  0  0  0  0  0
    1.6764   -0.9745    1.0631 H   0  0  0  0  0  0  0  0  0  0  0  0
    2.7123    1.0269   -3.5787 C   0  0  0  0  0  0  0  0  0  0  0  0
    3.1214    0.3270   -4.3377 H   0  0  0  0  0  0  0  0  0  0  0  0
    1.2905    1.4693   -3.8972 C   0  0  0  0  0  0  0  0  0  0  0  0
    1.2223    1.9546   -4.8742 H   0  0  0  0  0  0  0  0  0  0  0  0
    0.9152    2.1783   -3.1330 H   0  0  0  0  0  0  0  0  0  0  0  0
    0.6033    0.5978   -3.8939 H   0  0  0  0  0  0  0  0  0  0  0  0
    3.6501    2.1729   -3.2452 C   0  0  0  0  0  0  0  0  0  0  0  0
    3.6438    2.9456   -4.0204 H   0  0  0  0  0  0  0  0  0  0  0  0
    4.6842    1.8449   -3.0969 H   0  0  0  0  0  0  0  0  0  0  0  0
    3.3328    2.6566   -2.2995 H   0  0  0  0  0  0  0  0  0  0  0  0
    3.4690   -0.5467   -1.8479 C   0  0  0  0  0  0  0  0  0  0  0  0
    4.6381   -0.8954   -2.5009 C   0  0  0  0  0  0  0  0  0  0  0  0
    4.8574   -0.5448   -3.5068 H   0  0  0  0  0  0  0  0  0  0  0  0
    5.5393   -1.7265   -1.8434 C   0  0  0  0  0  0  0  0  0  0  0  0
    6.4620   -2.0139   -2.3522 H   0  0  0  0  0  0  0  0  0  0  0  0
    5.2893   -2.1981   -0.5581 C   0  0  0  0  0  0  0  0  0  0  0  0
    6.0143   -2.8425   -0.0635 H   0  0  0  0  0  0  0  0  0  0  0  0
    4.1196   -1.8378    0.0835 C   0  0  0  0  0  0  0  0  0  0  0  0
    3.9264   -2.1924    1.0948 H   0  0  0  0  0  0  0  0  0  0  0  0
    3.1841   -1.0224   -0.5559 C   0  0  0  0  0  0  0  0  0  0  0  0
    1.3002    2.4494   -0.4020 Cl  0  0  0  0  0  0  0  0  0  0  0  0
   -0.1252   -1.4565   -2.3247 Cl  0  0  0  0  0  0  0  0  0  0  0  0
   -0.8984    0.1908    0.1981 C   0  0  0  0  0  0  0  0  0  0  0  0
   -1.2509   -0.5342    1.3315 N   0  0  0  0  0  0  0  0  0  0  0  0
   -2.7028   -0.3820    1.7070 C   0  0  0  0  0  0  0  0  0  0  0  0
   -3.2268    0.6474    0.6867 C   0  0  0  0  0  0  0  0  0  0  0  0
   -2.0331    0.9130   -0.1825 N   0  0  0  0  0  0  0  0  0  0  0  0
   -3.2157   -1.3622    1.6260 H   0  0  0  0  0  0  0  0  0  0  0  0
   -2.7981   -0.0334    2.7545 H   0  0  0  0  0  0  0  0  0  0  0  0
   -3.5676    1.5807    1.1783 H   0  0  0  0  0  0  0  0  0  0  0  0
   -4.0652    0.2509    0.0797 H   0  0  0  0  0  0  0  0  0  0  0  0
   -0.4550   -1.3858    2.1860 C   0  0  0  0  0  0  0  0  0  0  0  0
    0.9511   -3.0543    3.9271 C   0  0  0  0  0  0  0  0  0  0  0  0
   -0.3202   -2.7576    1.8740 C   0  0  0  0  0  0  0  0  0  0  0  0
    0.1197   -0.8390    3.3610 C   0  0  0  0  0  0  0  0  0  0  0  0
    0.8290   -1.6932    4.2145 C   0  0  0  0  0  0  0  0  0  0  0  0
    0.3841   -3.5798    2.7676 C   0  0  0  0  0  0  0  0  0  0  0  0
    1.2952   -1.2915    5.1142 H   0  0  0  0  0  0  0  0  0  0  0  0
    0.4912   -4.6412    2.5441 H   0  0  0  0  0  0  0  0  0  0  0  0
    1.4964   -3.7053    4.6095 H   0  0  0  0  0  0  0  0  0  0  0  0
    0.0227    0.6450    3.6739 C   0  0  0  0  0  0  0  0  0  0  0  0
   -0.8969    1.0676    3.1907 H   0  0  0  0  0  0  0  0  0  0  0  0
   -0.8855   -3.3567    0.5978 C   0  0  0  0  0  0  0  0  0  0  0  0
   -1.3720   -2.5518   -0.0199 H   0  0  0  0  0  0  0  0  0  0  0  0
    1.2385    1.3559    3.0688 C   0  0  0  0  0  0  0  0  0  0  0  0
    1.2702    1.2298    1.9704 H   0  0  0  0  0  0  0  0  0  0  0  0
    2.1835    0.9781    3.4702 H   0  0  0  0  0  0  0  0  0  0  0  0
    1.2071    2.4355    3.2533 H   0  0  0  0  0  0  0  0  0  0  0  0
   -0.0958    0.9203    5.1784 C   0  0  0  0  0  0  0  0  0  0  0  0
   -0.3026    1.9808    5.3628 H   0  0  0  0  0  0  0  0  0  0  0  0
    0.8292    0.6792    5.7148 H   0  0  0  0  0  0  0  0  0  0  0  0
   -0.9046    0.3379    5.6315 H   0  0  0  0  0  0  0  0  0  0  0  0
    0.2482   -3.9350   -0.2573 C   0  0  0  0  0  0  0  0  0  0  0  0
    1.0105   -3.1648   -0.4629 H   0  0  0  0  0  0  0  0  0  0  0  0
   -0.1291   -4.2474   -1.2402 H   0  0  0  0  0  0  0  0  0  0  0  0
    0.7406   -4.7914    0.2074 H   0  0  0  0  0  0  0  0  0  0  0  0
   -1.9476   -4.4132    0.9275 C   0  0  0  0  0  0  0  0  0  0  0  0
   -2.4140   -4.7900    0.0095 H   0  0  0  0  0  0  0  0  0  0  0  0
   -2.7392   -4.0025    1.5613 H   0  0  0  0  0  0  0  0  0  0  0  0
   -1.5197   -5.2757    1.4497 H   0  0  0  0  0  0  0  0  0  0  0  0
   -2.1243    1.8575   -1.3341 C   0  0  0  0  0  0  0  0  0  0  0  0
   -2.8214    2.0841   -3.7550 C   0  0  0  0  0  0  0  0  0  0  0  0
   -3.0293    4.0542   -2.1756 C   0  0  0  0  0  0  0  0  0  0  0  0
   -3.6186    3.3481   -3.4043 C   0  0  0  0  0  0  0  0  0  0  0  0
   -2.9568    3.1064   -0.9701 C   0  0  0  0  0  0  0  0  0  0  0  0
   -2.7182    1.1293   -2.5597 C   0  0  0  0  0  0  0  0  0  0  0  0
   -1.8064    2.3632   -4.1001 H   0  0  0  0  0  0  0  0  0  0  0  0
   -2.0184    4.4424   -2.4106 H   0  0  0  0  0  0  0  0  0  0  0  0
   -4.6761    3.0828   -3.2137 H   0  0  0  0  0  0  0  0  0  0  0  0
   -3.9807    2.8240   -0.6642 H   0  0  0  0  0  0  0  0  0  0  0  0
   -3.7119    0.7105   -2.3192 H   0  0  0  0  0  0  0  0  0  0  0  0
   -1.0739    2.2063   -1.5803 H   0  0  0  0  0  0  0  0  0  0  0  0
   -3.2969    1.5608   -4.6065 H   0  0  0  0  0  0  0  0  0  0  0  0
   -3.6404    4.9392   -1.9168 H   0  0  0  0  0  0  0  0  0  0  0  0
   -3.6279    4.0393   -4.2678 H   0  0  0  0  0  0  0  0  0  0  0  0
   -2.4971    3.6252   -0.1066 H   0  0  0  0  0  0  0  0  0  0  0  0
   -2.0770    0.2563   -2.8180 H   0  0  0  0  0  0  0  0  0  0  0  0
  2  1  1  0  0  0  0
  3  1  2  0  0  0  0
  4  3  1  0  0  0  0
  5  2  1  0  0  0  0
  6  5  1  0  0  0  0
  7  5  1  0  0  0  0
  8  7  1  0  0  0  0
  9  7  1  0  0  0  0
 10  7  1  0  0  0  0
 11  5  1  0  0  0  0
 12 11  1  0  0  0  0
 13 11  1  0  0  0  0
 14 11  1  0  0  0  0
 15  2  1  0  0  0  0
 15 24  1  0  0  0  0
 16 15  2  0  0  0  0
 17 16  1  0  0  0  0
 18 16  1  0  0  0  0
 19 18  1  0  0  0  0
 20 18  2  0  0  0  0
 21 20  1  0  0  0  0
 22 20  1  0  0  0  0
 22 24  2  0  0  0  0
 23 22  1  0  0  0  0
 24  3  1  0  0  0  0
  1 25  1  0  0  0  0
  1 26  1  0  0  0  0
 27 28  1  0  0  0  0
 27 31  1  0  0  0  0
 28 29  1  0  0  0  0
 28 36  1  0  0  0  0
 29 32  1  0  0  0  0
 29 33  1  0  0  0  0
 29 30  1  0  0  0  0
 30 34  1  0  0  0  0
 30 35  1  0  0  0  0
 30 31  1  0  0  0  0
 31 65  1  0  0  0  0
 36 39  2  0  0  0  0
 36 38  1  0  0  0  0
 37 40  2  0  0  0  0
 37 41  1  0  0  0  0
 37 44  1  0  0  0  0
 38 41  2  0  0  0  0
 38 47  1  0  0  0  0
 39 40  1  0  0  0  0
 39 45  1  0  0  0  0
 40 42  1  0  0  0  0
 41 43  1  0  0  0  0
 45 46  1  0  0  0  0
 45 49  1  0  0  0  0
 45 53  1  0  0  0  0
 47 48  1  0  0  0  0
 47 57  1  0  0  0  0
 47 61  1  0  0  0  0
 49 50  1  0  0  0  0
 49 51  1  0  0  0  0
 49 52  1  0  0  0  0
 53 54  1  0  0  0  0
 53 55  1  0  0  0  0
 53 56  1  0  0  0  0
 57 58  1  0  0  0  0
 57 59  1  0  0  0  0
 57 60  1  0  0  0  0
 61 62  1  0  0  0  0
 61 63  1  0  0  0  0
 61 64  1  0  0  0  0
 65 76  1  0  0  0  0
 65 69  1  0  0  0  0
 65 70  1  0  0  0  0
 66 71  1  0  0  0  0
 66 77  1  0  0  0  0
 66 68  1  0  0  0  0
 66 70  1  0  0  0  0
 67 72  1  0  0  0  0
 67 78  1  0  0  0  0
 67 69  1  0  0  0  0
 67 68  1  0  0  0  0
 68 73  1  0  0  0  0
 68 79  1  0  0  0  0
 69 74  1  0  0  0  0
 69 80  1  0  0  0  0
 70 75  1  0  0  0  0
 70 81  1  0  0  0  0
  1 27  1  0  0  0  0
M  END
> <FrozenCore-PM6_ENERGY>
-136.453

> <RMSD_CONF_CG-CS>
0.723856

> <RMSD_CONF_GO-CS>
0.000000

> <UID>


> <DESCRIPTOR_DEFINITION_1>
desc1=( echo "1 * ( e( $hartree_to_kcalmol * ( ( $freeEnergyZ - $freeEnergyD ) - ( $freeEnergyX + 2*$G_Ethene - $freeEnergyD - 2*$G_Propene ) - $DDG_reference_HGII ) / $kT ) ) " | bc -l )

> <DESCRIPTOR_DEFINITION_2>
desc1=( echo "1 * ( e( $hartree_to_kcalmol * ( ( $freeEnergyZ - $freeEnergyD ) - ( $freeEnergyX + 2*$G_Ethene - $freeEnergyD - 2*$G_Propene ) - $DDG_reference_HGII ) / $kT ) ) " | bc -l )

> <DESCRIPTOR_DEFINITION_3>
desc1=( echo "1 * ( e( $hartree_to_kcalmol * ( ( $freeEnergyZ - $freeEnergyD ) - ( $freeEnergyX + 2*$G_Ethene - $freeEnergyD - 2*$G_Propene ) - $DDG_reference_HGII ) / $kT ) ) " | bc -l )

> <WEIGHT_DEFINITION_1>
w1=$( echo "1 / ( 1 + e( $hartree_to_kcalmol * ( ( ( $freeEnergyX + 2*$G_Ethene - $freeEnergyD - 2*$G_Propene ) ) - ( $DG_referenceProductionBarrier + $magnitude4 ) ) / $kT ) )" | bc -l )

> <WEIGHT_DEFINITION_2>
w1=$( echo "1 / ( 1 + e( $hartree_to_kcalmol * ( ( ( $freeEnergyX + 2*$G_Ethene - $freeEnergyD - 2*$G_Propene ) ) - ( $DG_referenceProductionBarrier + $magnitude4 ) ) / $kT ) )" | bc -l )

> <WEIGHT_DEFINITION_3>
w1=$( echo "1 / ( 1 + e( $hartree_to_kcalmol * ( ( ( $freeEnergyX + 2*$G_Ethene - $freeEnergyD - 2*$G_Propene ) ) - ( $DG_referenceProductionBarrier + $magnitude4 ) ) / $kT ) )" | bc -l )

> <WEIGHT_DEFINITION_4>
w1=$( echo "1 / ( 1 + e( $hartree_to_kcalmol * ( ( ( $freeEnergyX + 2*$G_Ethene - $freeEnergyD - 2*$G_Propene ) ) - ( $DG_referenceProductionBarrier + $magnitude4 ) ) / $kT ) )" | bc -l )

> <CALCULATION_OF_OVERALL_FITNESS>
fitness=$( echo "( $desc1 + $desc2 + $desc3 ) * ( $w1 * $w2 * $w3 * $w4 )" | bc -l )

> <freeEnergyA>
-2405.72363492

> <freeEnergyF>
-2405.69859741

> <freeEnergyE>
-2405.72363492

> <freeEnergyC>
-2060.4607086

> <freeEnergyL>
-927.850584198

> <freeEnergyX>
-2138.98967334

> <freeEnergyZ>
-2060.44490921

> <freeEnergyD>
-2060.48137886

> <G_Propene>
-117.738020895

> <G_Ethene>
-78.4716324751

> <G_HoveydaProd>
-502.204109499

> <G_SIMes>
-924.27249048

> <G_HG_RuCl2_SIMes>
-2402.13728523

> <DG_referenceProductionBarrier>
0.01468968

> <DG_referencePrecursorStabilityHII>
-0.0052201621

> <DG_referencePrecursorStabilityHI>
0.0117775312

> <DDG_referencePrecursorStability>
.0169976933

> <DG_referenceSynt>
0.0226072217

> <hartree_to_kcalmol>
627.49467516

> <boltzmann_constant>
0.0000000000000000000000138066

> <avogadro_number>
602214000000000000000000

> <jmol_to_kcalmol>
0.00023901

> <temp>
313.15

> <kT>
.6223089948281258706000000000

> <magnitude1>
1.43290809

> <magnitude2>
2.86581618

> <magnitude3>
4.29872427

> <magnitude4>
5.73163236

> <DFT_IDENTIFIER>
1723656656044

> <DFT_MACHINE>
158.39.114.73

> <XTB_IDENTIFIER>
NREC

> <XTB_MACHINE>
NREC

> <DESCRIPTOR_1>
.00003265982166299968

> <DESCRIPTOR_2>
7.521960770097651432

> <DESCRIPTOR_3>
0.0000000001

> <WEIGHT_1>
.99907140508482539736

> <WEIGHT_2>
.99999432322359238641

> <WEIGHT_3>
.99999999999999694789

> <WEIGHT_4>
.99999999891426966447

> <FITNESS>
7.51496587598576013509

$$$$
