
  CDK     07262420443D

 61 64  0  0  0  0  0  0  0  0999 V2000
    1.2602    0.7437   -0.1311 Ru  0  0  0  0  0  0  0  0  0  0  0  0
    2.7197    0.8400   -1.4335 C   0  0  0  0  0  0  0  0  0  0  0  0
    2.4504    1.2941   -2.4037 H   0  0  0  0  0  0  0  0  0  0  0  0
    3.1735    1.9038   -0.3524 C   0  0  0  0  0  0  0  0  0  0  0  0
    3.2252    2.8758   -0.8755 H   0  0  0  0  0  0  0  0  0  0  0  0
    2.2135    2.1181    0.8881 C   0  0  0  0  0  0  0  0  0  0  0  0
    2.6511    1.7714    1.8412 H   0  0  0  0  0  0  0  0  0  0  0  0
    1.7334    3.1123    0.9033 H   0  0  0  0  0  0  0  0  0  0  0  0
    4.1353    1.5431    0.0551 H   0  0  0  0  0  0  0  0  0  0  0  0
    3.3734   -0.0489   -1.4741 H   0  0  0  0  0  0  0  0  0  0  0  0
    0.1723    2.5178   -1.3129 Cl  0  0  0  0  0  0  0  0  0  0  0  0
    2.5341   -0.9156    1.0301 Cl  0  0  0  0  0  0  0  0  0  0  0  0
   -1.4190   -0.0129    0.9531 N   0  0  0  0  0  0  0  0  0  0  0  0
   -0.4448   -0.2731    0.0524 C   0  0  0  0  0  0  0  0  0  0  0  0
   -0.8132   -1.3193   -0.7206 N   0  0  0  0  0  0  0  0  0  0  0  0
   -2.1962   -1.7497   -0.4292 C   0  0  0  0  0  0  0  0  0  0  0  0
   -2.4957   -1.0231    0.8954 C   0  0  0  0  0  0  0  0  0  0  0  0
   -2.2498   -2.8517   -0.3416 H   0  0  0  0  0  0  0  0  0  0  0  0
   -3.4884   -0.5341    0.9063 H   0  0  0  0  0  0  0  0  0  0  0  0
   -2.4299   -1.6993    1.7751 H   0  0  0  0  0  0  0  0  0  0  0  0
   -2.8745   -1.4308   -1.2498 H   0  0  0  0  0  0  0  0  0  0  0  0
   -0.0176   -1.8384   -1.7990 C   0  0  0  0  0  0  0  0  0  0  0  0
   -0.0817   -1.2275   -3.0720 C   0  0  0  0  0  0  0  0  0  0  0  0
    0.7878   -2.9754   -1.5523 C   0  0  0  0  0  0  0  0  0  0  0  0
    0.7530   -1.7379   -4.0835 C   0  0  0  0  0  0  0  0  0  0  0  0
    1.6086   -2.8300   -3.8635 C   0  0  0  0  0  0  0  0  0  0  0  0
    0.7213   -1.2677   -5.0787 H   0  0  0  0  0  0  0  0  0  0  0  0
    1.5964   -3.4463   -2.5984 C   0  0  0  0  0  0  0  0  0  0  0  0
    2.2370   -4.3231   -2.4162 H   0  0  0  0  0  0  0  0  0  0  0  0
    2.5219   -3.3345   -4.9523 C   0  0  0  0  0  0  0  0  0  0  0  0
    2.5285   -4.4421   -4.9967 H   0  0  0  0  0  0  0  0  0  0  0  0
    3.5693   -3.0131   -4.7689 H   0  0  0  0  0  0  0  0  0  0  0  0
    2.2251   -2.9491   -5.9465 H   0  0  0  0  0  0  0  0  0  0  0  0
   -1.0111   -0.0778   -3.3512 C   0  0  0  0  0  0  0  0  0  0  0  0
   -0.6947    0.8432   -2.8147 H   0  0  0  0  0  0  0  0  0  0  0  0
   -2.0481   -0.2998   -3.0253 H   0  0  0  0  0  0  0  0  0  0  0  0
   -1.0391    0.1458   -4.4342 H   0  0  0  0  0  0  0  0  0  0  0  0
    0.7881   -3.6486   -0.2072 C   0  0  0  0  0  0  0  0  0  0  0  0
    1.3868   -4.5783   -0.2335 H   0  0  0  0  0  0  0  0  0  0  0  0
   -0.2375   -3.9126    0.1241 H   0  0  0  0  0  0  0  0  0  0  0  0
    1.2264   -2.9714    0.5558 H   0  0  0  0  0  0  0  0  0  0  0  0
   -1.3270    1.0056    1.9628 C   0  0  0  0  0  0  0  0  0  0  0  0
   -0.6159    0.7420    3.1556 C   0  0  0  0  0  0  0  0  0  0  0  0
   -1.9864    2.2377    1.7396 C   0  0  0  0  0  0  0  0  0  0  0  0
   -0.5097    1.7835    4.0963 C   0  0  0  0  0  0  0  0  0  0  0  0
   -1.1022    3.0396    3.8874 C   0  0  0  0  0  0  0  0  0  0  0  0
    0.0474    1.5965    5.0275 H   0  0  0  0  0  0  0  0  0  0  0  0
   -1.8517    3.2396    2.7131 C   0  0  0  0  0  0  0  0  0  0  0  0
   -2.3496    4.2074    2.5459 H   0  0  0  0  0  0  0  0  0  0  0  0
   -0.9421    4.1521    4.8927 C   0  0  0  0  0  0  0  0  0  0  0  0
   -0.2012    4.9002    4.5385 H   0  0  0  0  0  0  0  0  0  0  0  0
   -0.5890    3.7721    5.8705 H   0  0  0  0  0  0  0  0  0  0  0  0
   -1.8950    4.6948    5.0542 H   0  0  0  0  0  0  0  0  0  0  0  0
   -2.7963    2.4695    0.4934 C   0  0  0  0  0  0  0  0  0  0  0  0
   -2.1397    2.4291   -0.4008 H   0  0  0  0  0  0  0  0  0  0  0  0
   -3.2863    3.4606    0.5226 H   0  0  0  0  0  0  0  0  0  0  0  0
   -3.5891    1.7029    0.3674 H   0  0  0  0  0  0  0  0  0  0  0  0
    0.0055   -0.6011    3.4264 C   0  0  0  0  0  0  0  0  0  0  0  0
   -0.6939   -1.4319    3.2021 H   0  0  0  0  0  0  0  0  0  0  0  0
    0.3030   -0.6852    4.4885 H   0  0  0  0  0  0  0  0  0  0  0  0
    0.9085   -0.7658    2.7985 H   0  0  0  0  0  0  0  0  0  0  0  0
  2  4  1  0  0  0  0
  2  1  1  0  0  0  0
  2  3  1  0  0  0  0
  4  6  1  0  0  0  0
  4  5  1  0  0  0  0
  6  1  1  0  0  0  0
  6  8  1  0  0  0  0
  7  6  1  0  0  0  0
  9  4  1  0  0  0  0
 10  2  1  0  0  0  0
  1 11  1  0  0  0  0
  1 12  1  0  0  0  0
 13 14  1  0  0  0  0
 15 14  1  0  0  0  0
 16 15  1  0  0  0  0
 16 17  1  0  0  0  0
 17 13  1  0  0  0  0
 18 16  1  0  0  0  0
 19 17  1  0  0  0  0
 17 20  1  0  0  0  0
 16 21  1  0  0  0  0
 22 23  1  0  0  0  0
 22 24  2  0  0  0  0
 23 25  2  0  0  0  0
 25 26  1  0  0  0  0
 25 27  1  0  0  0  0
 26 28  2  0  0  0  0
 28 29  1  0  0  0  0
 28 24  1  0  0  0  0
 15 22  1  0  0  0  0
 30 31  1  0  0  0  0
 32 30  1  0  0  0  0
 33 30  1  0  0  0  0
 26 30  1  0  0  0  0
 34 35  1  0  0  0  0
 36 34  1  0  0  0  0
 37 34  1  0  0  0  0
 23 34  1  0  0  0  0
 38 39  1  0  0  0  0
 40 38  1  0  0  0  0
 41 38  1  0  0  0  0
 24 38  1  0  0  0  0
 42 43  1  0  0  0  0
 42 44  2  0  0  0  0
 43 45  2  0  0  0  0
 45 46  1  0  0  0  0
 45 47  1  0  0  0  0
 46 48  2  0  0  0  0
 48 49  1  0  0  0  0
 48 44  1  0  0  0  0
 13 42  1  0  0  0  0
 50 51  1  0  0  0  0
 52 50  1  0  0  0  0
 53 50  1  0  0  0  0
 46 50  1  0  0  0  0
 54 55  1  0  0  0  0
 56 54  1  0  0  0  0
 57 54  1  0  0  0  0
 44 54  1  0  0  0  0
 58 59  1  0  0  0  0
 60 58  1  0  0  0  0
 61 58  1  0  0  0  0
 43 58  1  0  0  0  0
  1 14  1  0  0  0  0
M  END
>  <DFT-ENERGY>
-2056.904729

$$$$
