
  CDK     07262419083D

 61 65  0  0  0  0  0  0  0  0999 V2000
    0.5260   -3.3654   -0.3827 H   0  0  0  0  0  0  0  0  0  0  0  0
    1.7555   -3.3674   -0.3346 C   0  0  0  0  0  0  0  0  0  0  0  0
    1.6866   -4.4618   -0.1407 H   0  0  0  0  0  0  0  0  0  0  0  0
    1.9987   -2.3592    0.7379 C   0  0  0  0  0  0  0  0  0  0  0  0
    2.9547   -1.8104    0.7041 H   0  0  0  0  0  0  0  0  0  0  0  0
    1.6402   -2.6184    1.7486 H   0  0  0  0  0  0  0  0  0  0  0  0
    0.5757   -1.6010   -0.5584 Ru  0  0  0  0  0  0  0  0  0  0  0  0
    2.0093   -2.8176   -1.6656 C   0  0  0  0  0  0  0  0  0  0  0  0
    2.9077   -2.2136   -1.8401 H   0  0  0  0  0  0  0  0  0  0  0  0
    1.6200   -3.3751   -2.5343 H   0  0  0  0  0  0  0  0  0  0  0  0
    2.1790    0.0732   -1.3152 Cl  0  0  0  0  0  0  0  0  0  0  0  0
   -1.3138   -2.6483    0.5214 Cl  0  0  0  0  0  0  0  0  0  0  0  0
   -0.7593    1.1477   -0.8975 N   0  0  0  0  0  0  0  0  0  0  0  0
   -0.3157    0.1866   -0.0382 C   0  0  0  0  0  0  0  0  0  0  0  0
   -0.7041    0.5305    1.2160 N   0  0  0  0  0  0  0  0  0  0  0  0
   -1.3669    1.8508    1.2498 C   0  0  0  0  0  0  0  0  0  0  0  0
   -1.6812    2.0891   -0.2267 C   0  0  0  0  0  0  0  0  0  0  0  0
   -0.6648    2.6048    1.6683 H   0  0  0  0  0  0  0  0  0  0  0  0
   -2.7276    1.8177   -0.4861 H   0  0  0  0  0  0  0  0  0  0  0  0
   -1.5013    3.1305   -0.5462 H   0  0  0  0  0  0  0  0  0  0  0  0
   -2.2696    1.8194    1.8872 H   0  0  0  0  0  0  0  0  0  0  0  0
   -0.2873   -0.0824    2.4454 C   0  0  0  0  0  0  0  0  0  0  0  0
   -1.2502   -0.7407    3.2410 C   0  0  0  0  0  0  0  0  0  0  0  0
    1.0512    0.0738    2.8789 C   0  0  0  0  0  0  0  0  0  0  0  0
   -0.8222   -1.3329    4.4422 C   0  0  0  0  0  0  0  0  0  0  0  0
    0.5129   -1.2659    4.8710 C   0  0  0  0  0  0  0  0  0  0  0  0
   -1.5615   -1.8685    5.0582 H   0  0  0  0  0  0  0  0  0  0  0  0
    1.4270   -0.5413    4.0847 C   0  0  0  0  0  0  0  0  0  0  0  0
    2.4689   -0.4346    4.4256 H   0  0  0  0  0  0  0  0  0  0  0  0
    0.9603   -1.9553    6.1355 C   0  0  0  0  0  0  0  0  0  0  0  0
    1.7350   -1.3682    6.6677 H   0  0  0  0  0  0  0  0  0  0  0  0
    1.4044   -2.9484    5.9089 H   0  0  0  0  0  0  0  0  0  0  0  0
    0.1148   -2.1246    6.8301 H   0  0  0  0  0  0  0  0  0  0  0  0
   -2.7069   -0.7814    2.8587 C   0  0  0  0  0  0  0  0  0  0  0  0
   -2.8407   -0.7371    1.7632 H   0  0  0  0  0  0  0  0  0  0  0  0
   -3.2594    0.0660    3.3219 H   0  0  0  0  0  0  0  0  0  0  0  0
   -3.1804   -1.7147    3.2178 H   0  0  0  0  0  0  0  0  0  0  0  0
    2.0366    0.9077    2.1066 C   0  0  0  0  0  0  0  0  0  0  0  0
    2.9978    0.9783    2.6496 H   0  0  0  0  0  0  0  0  0  0  0  0
    1.6584    1.9418    1.9595 H   0  0  0  0  0  0  0  0  0  0  0  0
    2.2306    0.5055    1.0912 H   0  0  0  0  0  0  0  0  0  0  0  0
   -0.5648    1.2152   -2.3129 C   0  0  0  0  0  0  0  0  0  0  0  0
    0.0567    2.3671   -2.8523 C   0  0  0  0  0  0  0  0  0  0  0  0
   -0.9816    0.1563   -3.1478 C   0  0  0  0  0  0  0  0  0  0  0  0
    0.1797    2.4663   -4.2470 C   0  0  0  0  0  0  0  0  0  0  0  0
   -0.2670    1.4513   -5.1109 C   0  0  0  0  0  0  0  0  0  0  0  0
    0.6723    3.3563   -4.6693 H   0  0  0  0  0  0  0  0  0  0  0  0
   -0.8253    0.2978   -4.5372 C   0  0  0  0  0  0  0  0  0  0  0  0
   -1.1488   -0.5283   -5.1896 H   0  0  0  0  0  0  0  0  0  0  0  0
   -0.1450    1.5997   -6.6064 C   0  0  0  0  0  0  0  0  0  0  0  0
    0.8059    2.0942   -6.8882 H   0  0  0  0  0  0  0  0  0  0  0  0
   -0.9687    2.2238   -7.0149 H   0  0  0  0  0  0  0  0  0  0  0  0
   -0.1887    0.6190   -7.1183 H   0  0  0  0  0  0  0  0  0  0  0  0
   -1.4905   -1.1286   -2.5709 C   0  0  0  0  0  0  0  0  0  0  0  0
   -2.1713   -1.0056   -1.7102 H   0  0  0  0  0  0  0  0  0  0  0  0
   -0.6270   -1.7813   -2.2198 H   0  0  0  0  0  0  0  0  0  0  0  0
   -1.9874   -1.7543   -3.3364 H   0  0  0  0  0  0  0  0  0  0  0  0
    0.6577    3.4238   -1.9625 C   0  0  0  0  0  0  0  0  0  0  0  0
    1.1132    2.9588   -1.0657 H   0  0  0  0  0  0  0  0  0  0  0  0
   -0.0863    4.1776   -1.6238 H   0  0  0  0  0  0  0  0  0  0  0  0
    1.4490    3.9764   -2.5033 H   0  0  0  0  0  0  0  0  0  0  0  0
  1  2  1  0  0  0  0
  1  7  1  0  0  0  0
  2  3  1  0  0  0  0
  2  4  1  0  0  0  0
  4  5  1  0  0  0  0
  6  4  1  0  0  0  0
  7  8  1  0  0  0  0
  7  4  1  0  0  0  0
  8  2  1  0  0  0  0
  8  9  1  0  0  0  0
 10  8  1  0  0  0  0
  7 11  1  0  0  0  0
  7 12  1  0  0  0  0
 13 14  1  0  0  0  0
 15 14  1  0  0  0  0
 16 15  1  0  0  0  0
 16 17  1  0  0  0  0
 17 13  1  0  0  0  0
 18 16  1  0  0  0  0
 19 17  1  0  0  0  0
 17 20  1  0  0  0  0
 16 21  1  0  0  0  0
 22 23  1  0  0  0  0
 22 24  2  0  0  0  0
 23 25  2  0  0  0  0
 25 26  1  0  0  0  0
 25 27  1  0  0  0  0
 26 28  2  0  0  0  0
 28 29  1  0  0  0  0
 28 24  1  0  0  0  0
 15 22  1  0  0  0  0
 30 31  1  0  0  0  0
 32 30  1  0  0  0  0
 33 30  1  0  0  0  0
 26 30  1  0  0  0  0
 34 35  1  0  0  0  0
 36 34  1  0  0  0  0
 37 34  1  0  0  0  0
 23 34  1  0  0  0  0
 38 39  1  0  0  0  0
 40 38  1  0  0  0  0
 41 38  1  0  0  0  0
 24 38  1  0  0  0  0
 42 43  1  0  0  0  0
 42 44  2  0  0  0  0
 43 45  2  0  0  0  0
 45 46  1  0  0  0  0
 45 47  1  0  0  0  0
 46 48  2  0  0  0  0
 48 49  1  0  0  0  0
 48 44  1  0  0  0  0
 13 42  1  0  0  0  0
 50 51  1  0  0  0  0
 52 50  1  0  0  0  0
 53 50  1  0  0  0  0
 46 50  1  0  0  0  0
 54 55  1  0  0  0  0
 56 54  1  0  0  0  0
 57 54  1  0  0  0  0
 44 54  1  0  0  0  0
 58 59  1  0  0  0  0
 60 58  1  0  0  0  0
 61 58  1  0  0  0  0
 43 58  1  0  0  0  0
  7 14  1  0  0  0  0
M  END
>  <DFT-ENERGY>
-2056.86024367

$$$$
