IQODAUMODN2_A1
  CDK     02052410213D

 75 79  0  0  0  0  0  0  0  0999 V2000
   -0.7944    0.1146    0.3069 Ru  0  0  0  0  0  0  0  0  0  0  0  0
   -2.5722    1.5038    0.3069 O   0  0  0  0  0  0  0  0  0  0  0  0
   -2.0046   -0.8895    1.2402 C   0  0  0  0  0  0  0  0  0  0  0  0
   -1.7718   -1.9122    1.5331 H   0  0  0  0  0  0  0  0  0  0  0  0
   -2.8077    2.7296   -0.4683 C   0  0  0  0  0  0  0  0  0  0  0  0
   -3.2189    3.4878    0.2312 H   0  0  0  0  0  0  0  0  0  0  0  0
   -1.3860    3.0482   -0.9083 C   0  0  0  0  0  0  0  0  0  0  0  0
   -1.3152    4.0182   -1.4055 H   0  0  0  0  0  0  0  0  0  0  0  0
   -0.9970    2.2768   -1.6045 H   0  0  0  0  0  0  0  0  0  0  0  0
   -0.6986    3.0533   -0.0368 H   0  0  0  0  0  0  0  0  0  0  0  0
   -3.7453    2.3956   -1.6150 C   0  0  0  0  0  0  0  0  0  0  0  0
   -3.4238    1.4523   -2.0996 H   0  0  0  0  0  0  0  0  0  0  0  0
   -3.7404    3.1728   -2.3854 H   0  0  0  0  0  0  0  0  0  0  0  0
   -4.7785    2.2434   -1.2865 H   0  0  0  0  0  0  0  0  0  0  0  0
   -3.5644    0.9988    1.1053 C   0  0  0  0  0  0  0  0  0  0  0  0
   -4.7335    1.6518    1.4540 C   0  0  0  0  0  0  0  0  0  0  0  0
   -4.9522    2.6578    1.1038 H   0  0  0  0  0  0  0  0  0  0  0  0
   -5.6347    0.9943    2.2851 C   0  0  0  0  0  0  0  0  0  0  0  0
   -6.5571    1.5031    2.5728 H   0  0  0  0  0  0  0  0  0  0  0  0
   -5.3847   -0.2910    2.7567 C   0  0  0  0  0  0  0  0  0  0  0  0
   -6.1093   -0.7851    3.4014 H   0  0  0  0  0  0  0  0  0  0  0  0
   -4.2150   -0.9326    2.3964 C   0  0  0  0  0  0  0  0  0  0  0  0
   -4.0218   -1.9439    2.7510 H   0  0  0  0  0  0  0  0  0  0  0  0
   -3.2795   -0.2932    1.5810 C   0  0  0  0  0  0  0  0  0  0  0  0
   -1.3875   -0.4395   -1.8611 Cl  0  0  0  0  0  0  0  0  0  0  0  0
    0.0285    1.4734    2.0123 Cl  0  0  0  0  0  0  0  0  0  0  0  0
    1.1353   -2.2470    0.7898 N   0  0  0  0  0  0  0  0  0  0  0  0
    1.9757   -0.5586   -0.3924 N   0  0  0  0  0  0  0  0  0  0  0  0
    0.8221   -0.9997    0.2646 C   0  0  0  0  0  0  0  0  0  0  0  0
    2.5466   -2.6918    0.5049 C   0  0  0  0  0  0  0  0  0  0  0  0
    2.5405   -3.6457   -0.0586 H   0  0  0  0  0  0  0  0  0  0  0  0
    3.0918   -2.8628    1.4541 H   0  0  0  0  0  0  0  0  0  0  0  0
    3.1278   -1.5224   -0.3118 C   0  0  0  0  0  0  0  0  0  0  0  0
    3.9944   -1.0418    0.1846 H   0  0  0  0  0  0  0  0  0  0  0  0
    3.4451   -1.8259   -1.3294 H   0  0  0  0  0  0  0  0  0  0  0  0
    0.3119   -3.1495    1.5496 C   0  0  0  0  0  0  0  0  0  0  0  0
    0.2993   -3.0645    2.9632 C   0  0  0  0  0  0  0  0  0  0  0  0
   -0.3920   -4.0398    3.6905 C   0  0  0  0  0  0  0  0  0  0  0  0
   -0.3959   -3.9961    4.7776 H   0  0  0  0  0  0  0  0  0  0  0  0
   -1.0873   -5.0667    3.0337 C   0  0  0  0  0  0  0  0  0  0  0  0
   -1.1270   -5.0985    1.6330 C   0  0  0  0  0  0  0  0  0  0  0  0
   -1.6981   -5.8726    1.1249 H   0  0  0  0  0  0  0  0  0  0  0  0
   -0.4456   -4.1370    0.8762 C   0  0  0  0  0  0  0  0  0  0  0  0
    0.9737   -1.9296    3.6558 C   0  0  0  0  0  0  0  0  0  0  0  0
    0.6249   -0.9577    3.2411 H   0  0  0  0  0  0  0  0  0  0  0  0
    2.0631   -1.9524    3.5237 H   0  0  0  0  0  0  0  0  0  0  0  0
    0.7712   -1.9007    4.7334 H   0  0  0  0  0  0  0  0  0  0  0  0
   -1.7973   -6.1075    3.8367 C   0  0  0  0  0  0  0  0  0  0  0  0
   -1.1085   -6.6211    4.5232 H   0  0  0  0  0  0  0  0  0  0  0  0
   -2.2677   -6.8802    3.2147 H   0  0  0  0  0  0  0  0  0  0  0  0
   -2.5925   -5.6605    4.4516 H   0  0  0  0  0  0  0  0  0  0  0  0
   -0.5509   -4.1220   -0.6115 C   0  0  0  0  0  0  0  0  0  0  0  0
    0.4084   -4.3480   -1.0950 H   0  0  0  0  0  0  0  0  0  0  0  0
   -0.8589   -3.1158   -0.9710 H   0  0  0  0  0  0  0  0  0  0  0  0
   -1.2912   -4.8339   -0.9970 H   0  0  0  0  0  0  0  0  0  0  0  0
    2.1880    0.6693   -1.1179 C   0  0  0  0  0  0  0  0  0  0  0  0
    2.7210    1.7992   -0.4506 C   0  0  0  0  0  0  0  0  0  0  0  0
    2.9973    2.9601   -1.1886 C   0  0  0  0  0  0  0  0  0  0  0  0
    3.3983    3.8313   -0.6750 H   0  0  0  0  0  0  0  0  0  0  0  0
    2.7632    3.0091   -2.5675 C   0  0  0  0  0  0  0  0  0  0  0  0
    2.2483    1.8820   -3.2229 C   0  0  0  0  0  0  0  0  0  0  0  0
    2.0671    1.9174   -4.2950 H   0  0  0  0  0  0  0  0  0  0  0  0
    1.9605    0.7064   -2.5171 C   0  0  0  0  0  0  0  0  0  0  0  0
    3.0153    1.8006    1.0115 C   0  0  0  0  0  0  0  0  0  0  0  0
    2.6654    0.8946    1.5302 H   0  0  0  0  0  0  0  0  0  0  0  0
    2.4927    2.6331    1.5164 H   0  0  0  0  0  0  0  0  0  0  0  0
    4.0880    1.9134    1.2091 H   0  0  0  0  0  0  0  0  0  0  0  0
    3.0634    4.2476   -3.3483 C   0  0  0  0  0  0  0  0  0  0  0  0
    2.1701    4.6119   -3.8761 H   0  0  0  0  0  0  0  0  0  0  0  0
    3.8345    4.0596   -4.1093 H   0  0  0  0  0  0  0  0  0  0  0  0
    3.4241    5.0716   -2.7191 H   0  0  0  0  0  0  0  0  0  0  0  0
    1.4381   -0.4685   -3.2737 C   0  0  0  0  0  0  0  0  0  0  0  0
    0.5397   -0.1934   -3.8545 H   0  0  0  0  0  0  0  0  0  0  0  0
    1.1109   -1.2957   -2.6250 H   0  0  0  0  0  0  0  0  0  0  0  0
    2.1827   -0.8600   -3.9770 H   0  0  0  0  0  0  0  0  0  0  0  0
  1  2  1  0  0  0  0
  1  3  2  0  0  0  0
  3  4  1  0  0  0  0
  2  5  1  0  0  0  0
  5  6  1  0  0  0  0
  5  7  1  0  0  0  0
  7  8  1  0  0  0  0
  7  9  1  0  0  0  0
  7 10  1  0  0  0  0
  5 11  1  0  0  0  0
 11 12  1  0  0  0  0
 11 13  1  0  0  0  0
 11 14  1  0  0  0  0
  2 15  1  0  0  0  0
 15 24  1  0  0  0  0
 15 16  2  0  0  0  0
 16 17  1  0  0  0  0
 16 18  1  0  0  0  0
 18 19  1  0  0  0  0
 18 20  2  0  0  0  0
 20 21  1  0  0  0  0
 20 22  1  0  0  0  0
 22 24  2  0  0  0  0
 22 23  1  0  0  0  0
  3 24  1  0  0  0  0
  1 25  1  0  0  0  0
  1 26  1  0  0  0  0
 27 29  1  0  0  0  0
 27 30  1  0  0  0  0
 27 36  1  0  0  0  0
 28 29  1  0  0  0  0
 28 33  1  0  0  0  0
 28 56  1  0  0  0  0
 30 31  1  0  0  0  0
 30 32  1  0  0  0  0
 30 33  1  0  0  0  0
 33 34  1  0  0  0  0
 33 35  1  0  0  0  0
 36 37  1  0  0  0  0
 36 43  2  0  0  0  0
 37 38  2  0  0  0  0
 37 44  1  0  0  0  0
 38 39  1  0  0  0  0
 38 40  1  0  0  0  0
 40 41  2  0  0  0  0
 40 48  1  0  0  0  0
 41 42  1  0  0  0  0
 41 43  1  0  0  0  0
 43 52  1  0  0  0  0
 44 45  1  0  0  0  0
 44 46  1  0  0  0  0
 44 47  1  0  0  0  0
 48 49  1  0  0  0  0
 48 50  1  0  0  0  0
 48 51  1  0  0  0  0
 52 53  1  0  0  0  0
 52 54  1  0  0  0  0
 52 55  1  0  0  0  0
 56 57  1  0  0  0  0
 56 63  2  0  0  0  0
 57 58  2  0  0  0  0
 57 64  1  0  0  0  0
 58 59  1  0  0  0  0
 58 60  1  0  0  0  0
 60 61  2  0  0  0  0
 60 68  1  0  0  0  0
 61 62  1  0  0  0  0
 61 63  1  0  0  0  0
 63 72  1  0  0  0  0
 64 65  1  0  0  0  0
 64 66  1  0  0  0  0
 64 67  1  0  0  0  0
 68 69  1  0  0  0  0
 68 70  1  0  0  0  0
 68 71  1  0  0  0  0
 72 73  1  0  0  0  0
 72 74  1  0  0  0  0
 72 75  1  0  0  0  0
  1 29  1  0  0  0  0
M  END
> <FrozenCore-PM6_ENERGY>
9.468

> <RMSD_CONF_CG-CS>
1.868333

> <RMSD_CONF_GO-CS>
0.000000

> <UID>


> <freeEnergyA>
-2402.1378888

> <freeEnergyF>
-2402.12239745

> <freeEnergyE>
-2402.1378888

> <freeEnergyC>
-2056.8821207

> <freeEnergyL>
-924.272485726

> <freeEnergyX>
-2135.4152531

> <freeEnergyZ>
-2056.86024112

> <freeEnergyD>
-2056.90474578

> <G_Propene>
-117.738020895

> <G_Ethene>
-78.4716324751

> <G_HoveydaProd>
-502.204109499

> <G_SIMes>
-924.27249048

> <G_HG_RuCl2_SIMes>
-2402.13728523

> <DG_referenceProductionBarrier>
0.01468968

> <hartree_to_kcalmol>
627.49467516

> <DFT_IDENTIFIER>
1707188176875

> <DFT_MACHINE>
158.36.42.38

> <XTB_IDENTIFIER>
NREC

> <XTB_MACHINE>
NREC

> <DE_Synth>
-.38172007077203184

> <DESCRIPTOR_DEFINITION_1>
desc1=( echo "1 * ( e( $hartree_to_kcalmol * ( ( $freeEnergyZ - $freeEnergyD ) - ( $freeEnergyX + 2*$G_Ethene - $freeEnergyD - 2*$G_Propene ) - $DDG_reference_HGII ) / $kT ) ) " | bc -l )

> <DESCRIPTOR_DEFINITION_2>
desc2=$( echo "1 * ( $hartree_to_kcalmol * ( ( $freeEnergyZ - $freeEnergyD ) - ( $freeEnergyX + 2*$G_Ethene - $freeEnergyD - 2*$G_Propene ) ) )" | bc -l )

> <DESCRIPTOR_DEFINITION_3>
desc3=$( echo "1 * $hartree_to_kcalmol * ( $DG_referenceProductionBarrier - ( $freeEnergyX + 2*$G_Ethene - $freeEnergyD - 2*$G_Propene ) )" | bc -l )

> <WEIGHT_DEFINITION_1>
w1=$( echo "1 / ( 1 + e( $hartree_to_kcalmol * ( ( ( $freeEnergyX + 2*$G_Ethene - $freeEnergyD - 2*$G_Propene ) ) - ( $DG_referenceProductionBarrier + $magnitude4 ) ) / $kT ) )" | bc -l )

> <WEIGHT_DEFINITION_2>
w2=$( echo "1 / ( 1 + e( $hartree_to_kcalmol * ( ABS( $freeEnergyC + $G_HoveydaProd - $freeEnergyA - 2*${G_Ethene} - $DG_referencePrecursorStabilityHII ) - ( $DDG_referencePrecursorStability + $magnitude1 ) ) / $kT ) )" | bc -l )

> <WEIGHT_DEFINITION_3>
w3=$( echo "1 / ( 1 + e( $hartree_to_kcalmol * ( ( $freeEnergyE + $G_PCy3 - $G_HI_precursor - $freeEnergyL ) - $magnitude1 ) / $kT ) )" | bc -l )

> <WEIGHT_DEFINITION_4>
w4=$( echo "1 / ( 1 + e( $hartree_to_kcalmol * ( - ( $freeEnergyF - $freeEnergyA ) + $magnitude2 ) / $kT ) )" | bc -l )

> <FITNESS_DEFINITION>
fitness=$( echo "( $desc1 + $desc2 + $desc3 ) * $w1 * $w2 * $w3 * $w4" | bc -l )

> <DESCRIPTOR_1>
1.00388760245542426916

> <DESCRIPTOR_2>
13.952432076936057432

> <DESCRIPTOR_3>
.001195377356179800

> <WEIGHT_1>
.99990019459971035149

> <WEIGHT_2>
.99999999583683634946

> <WEIGHT_3>
.99999999999318275209

> <WEIGHT_4>
.99998355224503607874

> <FITNESS>
14.95577616061613994664

$$$$
