
  CDK     02062402483D

 61 64  0  0  0  0  0  0  0  0999 V2000
    1.2781   -0.0990    0.7558 Ru  0  0  0  0  0  0  0  0  0  0  0  0
    2.9313   -1.1340    0.5765 C   0  0  0  0  0  0  0  0  0  0  0  0
    2.8372   -2.2128    0.7927 H   0  0  0  0  0  0  0  0  0  0  0  0
    3.2290   -0.2597    1.8623 C   0  0  0  0  0  0  0  0  0  0  0  0
    3.3851   -0.9716    2.6928 H   0  0  0  0  0  0  0  0  0  0  0  0
    2.0885    0.7325    2.3331 C   0  0  0  0  0  0  0  0  0  0  0  0
    2.3593    1.7967    2.2177 H   0  0  0  0  0  0  0  0  0  0  0  0
    1.6333    0.4452    3.2975 H   0  0  0  0  0  0  0  0  0  0  0  0
    4.1047    0.3678    1.6165 H   0  0  0  0  0  0  0  0  0  0  0  0
    3.5603   -0.8616   -0.2895 H   0  0  0  0  0  0  0  0  0  0  0  0
    0.4565   -1.8419    2.1744 Cl  0  0  0  0  0  0  0  0  0  0  0  0
    2.2932    1.6282   -0.5535 Cl  0  0  0  0  0  0  0  0  0  0  0  0
   -1.3947    0.9883   -0.0123 N   0  0  0  0  0  0  0  0  0  0  0  0
   -0.8592   -0.7867   -1.2114 N   0  0  0  0  0  0  0  0  0  0  0  0
   -0.4507    0.0446   -0.2267 C   0  0  0  0  0  0  0  0  0  0  0  0
   -2.6085    0.7356   -0.8162 C   0  0  0  0  0  0  0  0  0  0  0  0
   -2.9521    1.6675   -1.3042 H   0  0  0  0  0  0  0  0  0  0  0  0
   -3.4261    0.3617   -0.1628 H   0  0  0  0  0  0  0  0  0  0  0  0
   -2.1250   -0.3281   -1.8201 C   0  0  0  0  0  0  0  0  0  0  0  0
   -2.8314   -1.1729   -1.9302 H   0  0  0  0  0  0  0  0  0  0  0  0
   -1.9299    0.0977   -2.8279 H   0  0  0  0  0  0  0  0  0  0  0  0
   -1.2963    2.0060    0.9976 C   0  0  0  0  0  0  0  0  0  0  0  0
   -1.6623    1.7054    2.3294 C   0  0  0  0  0  0  0  0  0  0  0  0
   -1.5033    2.7174    3.2944 C   0  0  0  0  0  0  0  0  0  0  0  0
   -1.7764    2.4966    4.3381 H   0  0  0  0  0  0  0  0  0  0  0  0
   -1.0228    3.9948    2.9626 C   0  0  0  0  0  0  0  0  0  0  0  0
   -0.7277    4.2701    1.6144 C   0  0  0  0  0  0  0  0  0  0  0  0
   -0.3802    5.2754    1.3297 H   0  0  0  0  0  0  0  0  0  0  0  0
   -0.8633    3.2970    0.6122 C   0  0  0  0  0  0  0  0  0  0  0  0
   -2.2105    0.3584    2.7147 C   0  0  0  0  0  0  0  0  0  0  0  0
   -1.4236   -0.4264    2.6798 H   0  0  0  0  0  0  0  0  0  0  0  0
   -3.0194    0.0316    2.0298 H   0  0  0  0  0  0  0  0  0  0  0  0
   -2.6257    0.3859    3.7396 H   0  0  0  0  0  0  0  0  0  0  0  0
   -0.8253    5.0508    4.0209 C   0  0  0  0  0  0  0  0  0  0  0  0
   -1.3528    4.7932    4.9593 H   0  0  0  0  0  0  0  0  0  0  0  0
   -1.1871    6.0413    3.6795 H   0  0  0  0  0  0  0  0  0  0  0  0
    0.2520    5.1679    4.2651 H   0  0  0  0  0  0  0  0  0  0  0  0
   -0.5470    3.6121   -0.8242 C   0  0  0  0  0  0  0  0  0  0  0  0
   -1.3951    3.3688   -1.4974 H   0  0  0  0  0  0  0  0  0  0  0  0
    0.3311    3.0209   -1.1588 H   0  0  0  0  0  0  0  0  0  0  0  0
   -0.3129    4.6859   -0.9482 H   0  0  0  0  0  0  0  0  0  0  0  0
   -0.0736   -1.8800   -1.7144 C   0  0  0  0  0  0  0  0  0  0  0  0
   -0.3482   -3.1826   -1.2347 C   0  0  0  0  0  0  0  0  0  0  0  0
    0.4560   -4.2356   -1.6979 C   0  0  0  0  0  0  0  0  0  0  0  0
    0.2607   -5.2525   -1.3233 H   0  0  0  0  0  0  0  0  0  0  0  0
    1.4966   -4.0255   -2.6216 C   0  0  0  0  0  0  0  0  0  0  0  0
    1.6993   -2.7264   -3.1161 C   0  0  0  0  0  0  0  0  0  0  0  0
    2.4831   -2.5506   -3.8692 H   0  0  0  0  0  0  0  0  0  0  0  0
    0.9204   -1.6349   -2.6891 C   0  0  0  0  0  0  0  0  0  0  0  0
   -1.4592   -3.4289   -0.2509 C   0  0  0  0  0  0  0  0  0  0  0  0
   -2.4311   -3.0393   -0.6189 H   0  0  0  0  0  0  0  0  0  0  0  0
   -1.2342   -2.9239    0.7119 H   0  0  0  0  0  0  0  0  0  0  0  0
   -1.5793   -4.5112   -0.0574 H   0  0  0  0  0  0  0  0  0  0  0  0
    2.3711   -5.1712   -3.0650 C   0  0  0  0  0  0  0  0  0  0  0  0
    3.1257   -5.4151   -2.2870 H   0  0  0  0  0  0  0  0  0  0  0  0
    2.9201   -4.9304   -3.9955 H   0  0  0  0  0  0  0  0  0  0  0  0
    1.7789   -6.0918   -3.2388 H   0  0  0  0  0  0  0  0  0  0  0  0
    1.1442   -0.2626   -3.2636 C   0  0  0  0  0  0  0  0  0  0  0  0
    1.8078   -0.3142   -4.1471 H   0  0  0  0  0  0  0  0  0  0  0  0
    1.6096    0.4195   -2.5188 H   0  0  0  0  0  0  0  0  0  0  0  0
    0.1930    0.2113   -3.5811 H   0  0  0  0  0  0  0  0  0  0  0  0
  2  4  1  0  0  0  0
  2  1  1  0  0  0  0
  2  3  1  0  0  0  0
  4  6  1  0  0  0  0
  4  5  1  0  0  0  0
  6  1  1  0  0  0  0
  6  8  1  0  0  0  0
  7  6  1  0  0  0  0
  9  4  1  0  0  0  0
 10  2  1  0  0  0  0
  1 11  1  0  0  0  0
  1 12  1  0  0  0  0
 13 15  1  0  0  0  0
 13 16  1  0  0  0  0
 13 22  1  0  0  0  0
 14 15  1  0  0  0  0
 14 19  1  0  0  0  0
 14 42  1  0  0  0  0
 16 17  1  0  0  0  0
 16 18  1  0  0  0  0
 16 19  1  0  0  0  0
 19 20  1  0  0  0  0
 19 21  1  0  0  0  0
 22 23  1  0  0  0  0
 22 29  2  0  0  0  0
 23 24  2  0  0  0  0
 23 30  1  0  0  0  0
 24 25  1  0  0  0  0
 24 26  1  0  0  0  0
 26 27  2  0  0  0  0
 26 34  1  0  0  0  0
 27 28  1  0  0  0  0
 27 29  1  0  0  0  0
 29 38  1  0  0  0  0
 30 31  1  0  0  0  0
 30 32  1  0  0  0  0
 30 33  1  0  0  0  0
 34 35  1  0  0  0  0
 34 36  1  0  0  0  0
 34 37  1  0  0  0  0
 38 39  1  0  0  0  0
 38 40  1  0  0  0  0
 38 41  1  0  0  0  0
 42 43  1  0  0  0  0
 42 49  2  0  0  0  0
 43 44  2  0  0  0  0
 43 50  1  0  0  0  0
 44 45  1  0  0  0  0
 44 46  1  0  0  0  0
 46 47  2  0  0  0  0
 46 54  1  0  0  0  0
 47 48  1  0  0  0  0
 47 49  1  0  0  0  0
 49 58  1  0  0  0  0
 50 51  1  0  0  0  0
 50 52  1  0  0  0  0
 50 53  1  0  0  0  0
 54 55  1  0  0  0  0
 54 56  1  0  0  0  0
 54 57  1  0  0  0  0
 58 59  1  0  0  0  0
 58 60  1  0  0  0  0
 58 61  1  0  0  0  0
  1 15  1  0  0  0  0
M  END
>  <DFT-ENERGY>
-2056.90474585

$$$$
