tetraMeSIPh-0_A1
  CDK     08122409473D

 69 73  0  0  0  0  0  0  0  0999 V2000
    1.0853   -0.3965   -0.2247 Ru  0  0  0  0  0  0  0  0  0  0  0  0
    2.8631   -0.3965   -1.6139 O   0  0  0  0  0  0  0  0  0  0  0  0
    2.2955   -1.3298    0.7794 C   0  0  0  0  0  0  0  0  0  0  0  0
    2.0627   -1.6227    1.8021 H   0  0  0  0  0  0  0  0  0  0  0  0
    3.0986    0.3787   -2.8397 C   0  0  0  0  0  0  0  0  0  0  0  0
    3.5099   -0.3209   -3.5979 H   0  0  0  0  0  0  0  0  0  0  0  0
    1.6794    0.8210   -3.1590 C   0  0  0  0  0  0  0  0  0  0  0  0
    1.6124    1.3219   -4.1278 H   0  0  0  0  0  0  0  0  0  0  0  0
    1.2944    1.5206   -2.3872 H   0  0  0  0  0  0  0  0  0  0  0  0
    0.9921   -0.0493   -3.1686 H   0  0  0  0  0  0  0  0  0  0  0  0
    4.0370    1.5240   -2.5039 C   0  0  0  0  0  0  0  0  0  0  0  0
    5.0700    1.1953   -2.3513 H   0  0  0  0  0  0  0  0  0  0  0  0
    3.7154    2.0088   -1.5601 H   0  0  0  0  0  0  0  0  0  0  0  0
    4.0333    2.2960   -3.2797 H   0  0  0  0  0  0  0  0  0  0  0  0
    3.8553   -1.1949   -1.1089 C   0  0  0  0  0  0  0  0  0  0  0  0
    5.0244   -1.5438   -1.7619 C   0  0  0  0  0  0  0  0  0  0  0  0
    5.2433   -1.1934   -2.7679 H   0  0  0  0  0  0  0  0  0  0  0  0
    5.9256   -2.3748   -1.1044 C   0  0  0  0  0  0  0  0  0  0  0  0
    6.8482   -2.6623   -1.6132 H   0  0  0  0  0  0  0  0  0  0  0  0
    5.6756   -2.8463    0.1809 C   0  0  0  0  0  0  0  0  0  0  0  0
    6.4005   -3.4908    0.6754 H   0  0  0  0  0  0  0  0  0  0  0  0
    4.5059   -2.4860    0.8225 C   0  0  0  0  0  0  0  0  0  0  0  0
    4.3127   -2.8406    1.8338 H   0  0  0  0  0  0  0  0  0  0  0  0
    3.5704   -1.6706    0.1831 C   0  0  0  0  0  0  0  0  0  0  0  0
    1.6868    1.8024    0.3373 Cl  0  0  0  0  0  0  0  0  0  0  0  0
    0.2610   -2.1048   -1.5858 Cl  0  0  0  0  0  0  0  0  0  0  0  0
   -0.4292   -0.3417    1.0037 C   0  0  0  0  0  0  0  0  0  0  0  0
   -1.4179    0.6085    0.7159 N   0  0  0  0  0  0  0  0  0  0  0  0
   -2.5920    0.6164    1.6717 C   0  0  0  0  0  0  0  0  0  0  0  0
   -2.0156   -0.2850    2.8606 C   0  0  0  0  0  0  0  0  0  0  0  0
   -0.8468   -0.9884    2.1764 N   0  0  0  0  0  0  0  0  0  0  0  0
   -1.3316    1.4904   -0.4291 C   0  0  0  0  0  0  0  0  0  0  0  0
   -1.3528    3.1575   -2.6666 C   0  0  0  0  0  0  0  0  0  0  0  0
   -1.4867    0.9312   -1.7108 C   0  0  0  0  0  0  0  0  0  0  0  0
   -1.1247    2.8721   -0.2665 C   0  0  0  0  0  0  0  0  0  0  0  0
   -1.1460    3.6985   -1.3919 C   0  0  0  0  0  0  0  0  0  0  0  0
   -1.5064    1.7770   -2.8244 C   0  0  0  0  0  0  0  0  0  0  0  0
   -0.9870    4.7701   -1.2753 H   0  0  0  0  0  0  0  0  0  0  0  0
   -1.6420    1.3515   -3.8184 H   0  0  0  0  0  0  0  0  0  0  0  0
   -0.2818   -2.2018    2.7016 C   0  0  0  0  0  0  0  0  0  0  0  0
    0.7347   -4.6178    3.6884 C   0  0  0  0  0  0  0  0  0  0  0  0
   -0.0032   -3.2622    1.8153 C   0  0  0  0  0  0  0  0  0  0  0  0
   -0.0359   -2.3503    4.0783 C   0  0  0  0  0  0  0  0  0  0  0  0
    0.4669   -3.5606    4.5616 C   0  0  0  0  0  0  0  0  0  0  0  0
    0.5043   -4.4605    2.3162 C   0  0  0  0  0  0  0  0  0  0  0  0
   -0.1730   -3.1417    0.7373 H   0  0  0  0  0  0  0  0  0  0  0  0
   -0.2269   -1.5229    4.7655 H   0  0  0  0  0  0  0  0  0  0  0  0
    0.6544   -3.6756    5.6287 H   0  0  0  0  0  0  0  0  0  0  0  0
    0.7195   -5.2799    1.6288 H   0  0  0  0  0  0  0  0  0  0  0  0
    1.1234   -5.5587    4.0710 H   0  0  0  0  0  0  0  0  0  0  0  0
   -0.9092    3.2825    0.7199 H   0  0  0  0  0  0  0  0  0  0  0  0
   -1.5881   -0.1541   -1.8323 H   0  0  0  0  0  0  0  0  0  0  0  0
   -1.3807    3.8117   -3.5358 H   0  0  0  0  0  0  0  0  0  0  0  0
   -3.7848   -0.0283    0.9512 C   0  0  0  0  0  0  0  0  0  0  0  0
   -3.5677   -1.0583    0.6392 H   0  0  0  0  0  0  0  0  0  0  0  0
   -4.0367    0.5256    0.0362 H   0  0  0  0  0  0  0  0  0  0  0  0
   -4.6821   -0.0451    1.5772 H   0  0  0  0  0  0  0  0  0  0  0  0
   -2.9720    2.0283    2.1119 C   0  0  0  0  0  0  0  0  0  0  0  0
   -2.1099    2.6034    2.4736 H   0  0  0  0  0  0  0  0  0  0  0  0
   -3.7203    2.0053    2.9122 H   0  0  0  0  0  0  0  0  0  0  0  0
   -3.4064    2.6017    1.2809 H   0  0  0  0  0  0  0  0  0  0  0  0
   -3.0310   -1.2973    3.3845 C   0  0  0  0  0  0  0  0  0  0  0  0
   -3.9570   -0.8036    3.7001 H   0  0  0  0  0  0  0  0  0  0  0  0
   -2.6474   -1.8501    4.2527 H   0  0  0  0  0  0  0  0  0  0  0  0
   -3.2924   -2.0534    2.6316 H   0  0  0  0  0  0  0  0  0  0  0  0
   -1.4692    0.5636    4.0157 C   0  0  0  0  0  0  0  0  0  0  0  0
   -2.2677    1.0918    4.5462 H   0  0  0  0  0  0  0  0  0  0  0  0
   -0.7394    1.3072    3.6661 H   0  0  0  0  0  0  0  0  0  0  0  0
   -0.9451   -0.0602    4.7578 H   0  0  0  0  0  0  0  0  0  0  0  0
  1  2  1  0  0  0  0
  1  3  2  0  0  0  0
  3  4  1  0  0  0  0
  2  5  1  0  0  0  0
  5  6  1  0  0  0  0
  5  7  1  0  0  0  0
  7  8  1  0  0  0  0
  7  9  1  0  0  0  0
  7 10  1  0  0  0  0
  5 11  1  0  0  0  0
 11 12  1  0  0  0  0
 11 13  1  0  0  0  0
 11 14  1  0  0  0  0
  2 15  1  0  0  0  0
 15 24  1  0  0  0  0
 15 16  2  0  0  0  0
 16 17  1  0  0  0  0
 16 18  1  0  0  0  0
 18 19  1  0  0  0  0
 18 20  2  0  0  0  0
 20 21  1  0  0  0  0
 20 22  1  0  0  0  0
 22 24  2  0  0  0  0
 22 23  1  0  0  0  0
  3 24  1  0  0  0  0
  1 25  1  0  0  0  0
  1 26  1  0  0  0  0
 27 28  1  0  0  0  0
 27 31  1  0  0  0  0
 28 29  1  0  0  0  0
 30 31  1  0  0  0  0
 32 35  2  0  0  0  0
 35 36  1  0  0  0  0
 33 36  2  0  0  0  0
 33 37  1  0  0  0  0
 34 37  2  0  0  0  0
 32 34  1  0  0  0  0
 36 38  1  0  0  0  0
 37 39  1  0  0  0  0
 28 32  1  0  0  0  0
 40 43  2  0  0  0  0
 43 44  1  0  0  0  0
 41 44  2  0  0  0  0
 41 45  1  0  0  0  0
 42 45  2  0  0  0  0
 40 42  1  0  0  0  0
 44 48  1  0  0  0  0
 45 49  1  0  0  0  0
 41 50  1  0  0  0  0
 42 46  1  0  0  0  0
 43 47  1  0  0  0  0
 31 40  1  0  0  0  0
 35 51  1  0  0  0  0
 34 52  1  0  0  0  0
 33 53  1  0  0  0  0
 29 30  1  0  0  0  0
 54 55  1  0  0  0  0
 54 56  1  0  0  0  0
 54 57  1  0  0  0  0
 29 54  1  0  0  0  0
 58 59  1  0  0  0  0
 58 60  1  0  0  0  0
 58 61  1  0  0  0  0
 29 58  1  0  0  0  0
 62 63  1  0  0  0  0
 62 64  1  0  0  0  0
 62 65  1  0  0  0  0
 30 62  1  0  0  0  0
 66 67  1  0  0  0  0
 66 68  1  0  0  0  0
 66 69  1  0  0  0  0
 30 66  1  0  0  0  0
  1 27  1  0  0  0  0
M  END
> <FrozenCore-PM6_ENERGY>
115.348

> <RMSD_CONF_CG-CS>
3.056306

> <RMSD_CONF_GO-CS>
0.000000

> <UID>


> <DESCRIPTOR_DEFINITION_1>
desc1=( echo "1 * ( e( $hartree_to_kcalmol * ( ( $freeEnergyZ - $freeEnergyD ) - ( $freeEnergyX + 2*$G_Ethene - $freeEnergyD - 2*$G_Propene ) - $DDG_reference_HGII ) / $kT ) ) " | bc -l )

> <DESCRIPTOR_DEFINITION_2>
desc1=( echo "1 * ( e( $hartree_to_kcalmol * ( ( $freeEnergyZ - $freeEnergyD ) - ( $freeEnergyX + 2*$G_Ethene - $freeEnergyD - 2*$G_Propene ) - $DDG_reference_HGII ) / $kT ) ) " | bc -l )

> <DESCRIPTOR_DEFINITION_3>
desc1=( echo "1 * ( e( $hartree_to_kcalmol * ( ( $freeEnergyZ - $freeEnergyD ) - ( $freeEnergyX + 2*$G_Ethene - $freeEnergyD - 2*$G_Propene ) - $DDG_reference_HGII ) / $kT ) ) " | bc -l )

> <WEIGHT_DEFINITION_1>
w1=$( echo "1 / ( 1 + e( $hartree_to_kcalmol * ( ( ( $freeEnergyX + 2*$G_Ethene - $freeEnergyD - 2*$G_Propene ) ) - ( $DG_referenceProductionBarrier + $magnitude4 ) ) / $kT ) )" | bc -l )

> <WEIGHT_DEFINITION_2>
w1=$( echo "1 / ( 1 + e( $hartree_to_kcalmol * ( ( ( $freeEnergyX + 2*$G_Ethene - $freeEnergyD - 2*$G_Propene ) ) - ( $DG_referenceProductionBarrier + $magnitude4 ) ) / $kT ) )" | bc -l )

> <WEIGHT_DEFINITION_3>
w1=$( echo "1 / ( 1 + e( $hartree_to_kcalmol * ( ( ( $freeEnergyX + 2*$G_Ethene - $freeEnergyD - 2*$G_Propene ) ) - ( $DG_referenceProductionBarrier + $magnitude4 ) ) / $kT ) )" | bc -l )

> <WEIGHT_DEFINITION_4>
w1=$( echo "1 / ( 1 + e( $hartree_to_kcalmol * ( ( ( $freeEnergyX + 2*$G_Ethene - $freeEnergyD - 2*$G_Propene ) ) - ( $DG_referenceProductionBarrier + $magnitude4 ) ) / $kT ) )" | bc -l )

> <CALCULATION_OF_OVERALL_FITNESS>
fitness=$( echo "( $desc1 + $desc2 + $desc3 ) * ( $w1 * $w2 * $w3 * $w4 )" | bc -l )

> <freeEnergyA>
-2323.6047507

> <freeEnergyF>
-2323.5876662

> <freeEnergyE>
-2323.6047507

> <freeEnergyC>
-1978.34301849

> <freeEnergyL>
-845.737379856

> <freeEnergyX>
-2056.87435753

> <freeEnergyZ>
-1978.33479314

> <freeEnergyD>
-1978.36672383

> <G_Propene>
-117.738020895

> <G_Ethene>
-78.4716324751

> <G_HoveydaProd>
-502.204109499

> <G_SIMes>
-924.27249048

> <G_HG_RuCl2_SIMes>
-2402.13728523

> <DG_referenceProductionBarrier>
0.01468968

> <DG_referencePrecursorStabilityHII>
-0.0052201621

> <DG_referencePrecursorStabilityHI>
0.0117775312

> <DDG_referencePrecursorStability>
.0169976933

> <DG_referenceSynt>
0.0226072217

> <hartree_to_kcalmol>
627.49467516

> <boltzmann_constant>
0.0000000000000000000000138066

> <avogadro_number>
602214000000000000000000

> <jmol_to_kcalmol>
0.00023901

> <temp>
313.15

> <kT>
.6223089948281258706000000000

> <magnitude1>
1.43290809

> <magnitude2>
2.86581618

> <magnitude3>
4.29872427

> <magnitude4>
5.73163236

> <DFT_IDENTIFIER>
1723566168842

> <DFT_MACHINE>
158.39.114.73

> <XTB_IDENTIFIER>
NREC

> <XTB_MACHINE>
NREC

> <DESCRIPTOR_1>
.00000017257495160354

> <DESCRIPTOR_2>
4.259151607881193032

> <DESCRIPTOR_3>
0.0000000001

> <WEIGHT_1>
.99819362045260327780

> <WEIGHT_2>
.99999829710961735157

> <WEIGHT_3>
.99999999999906266216

> <WEIGHT_4>
.99999670048174825999

> <FITNESS>
4.25143686837950467518

$$$$
