
  CDK     08132408593D

 61 64  0  0  0  0  0  0  0  0999 V2000
   -0.6523    3.6133   -2.1415 C   0  0  0  0  0  0  0  0  0  0  0  0
    0.3840    3.6374   -2.5235 H   0  0  0  0  0  0  0  0  0  0  0  0
   -1.1907    4.5310   -2.4694 H   0  0  0  0  0  0  0  0  0  0  0  0
   -1.1738    2.7546   -2.6068 H   0  0  0  0  0  0  0  0  0  0  0  0
   -0.6967    3.5386   -0.6347 C   0  0  0  0  0  0  0  0  0  0  0  0
   -1.7061    3.5129   -0.1820 H   0  0  0  0  0  0  0  0  0  0  0  0
    0.3197    4.0729    0.2000 C   0  0  0  0  0  0  0  0  0  0  0  0
    1.2647    4.3561   -0.2966 H   0  0  0  0  0  0  0  0  0  0  0  0
   -0.0413    4.7773    1.4879 C   0  0  0  0  0  0  0  0  0  0  0  0
    0.8280    4.9206    2.1570 H   0  0  0  0  0  0  0  0  0  0  0  0
   -0.4419    5.7837    1.2385 H   0  0  0  0  0  0  0  0  0  0  0  0
   -0.8299    4.2168    2.0279 H   0  0  0  0  0  0  0  0  0  0  0  0
    1.3567    2.3197    1.3123 C   0  0  0  0  0  0  0  0  0  0  0  0
    1.0271    2.4518    2.3656 H   0  0  0  0  0  0  0  0  0  0  0  0
    2.4141    2.5615    1.0678 H   0  0  0  0  0  0  0  0  0  0  0  0
    0.2190    1.6701    0.0332 Ru  0  0  0  0  0  0  0  0  0  0  0  0
   -1.5856    1.5395    1.6356 Cl  0  0  0  0  0  0  0  0  0  0  0  0
    1.9893    1.7074   -1.5982 Cl  0  0  0  0  0  0  0  0  0  0  0  0
    0.1701   -0.3078    0.0491 C   0  0  0  0  0  0  0  0  0  0  0  0
    0.7534   -1.2125    0.8812 N   0  0  0  0  0  0  0  0  0  0  0  0
    0.0093   -2.5225    0.8312 C   0  0  0  0  0  0  0  0  0  0  0  0
   -0.5449   -2.4511   -0.6440 C   0  0  0  0  0  0  0  0  0  0  0  0
   -0.6897   -0.9666   -0.7607 N   0  0  0  0  0  0  0  0  0  0  0  0
    1.8679   -0.9225    1.7129 C   0  0  0  0  0  0  0  0  0  0  0  0
    4.1253   -0.3390    3.2923 C   0  0  0  0  0  0  0  0  0  0  0  0
    1.8613   -1.2129    3.0905 C   0  0  0  0  0  0  0  0  0  0  0  0
    3.0068   -0.3309    1.1289 C   0  0  0  0  0  0  0  0  0  0  0  0
    4.1215   -0.0315    1.9227 C   0  0  0  0  0  0  0  0  0  0  0  0
    2.9925   -0.9319    3.8699 C   0  0  0  0  0  0  0  0  0  0  0  0
    4.9992    0.4401    1.4574 H   0  0  0  0  0  0  0  0  0  0  0  0
    2.9764   -1.1622    4.9449 H   0  0  0  0  0  0  0  0  0  0  0  0
   -1.4367   -0.2859   -1.7735 C   0  0  0  0  0  0  0  0  0  0  0  0
   -2.9493    0.9922   -3.7548 C   0  0  0  0  0  0  0  0  0  0  0  0
   -2.7157    0.2118   -1.4630 C   0  0  0  0  0  0  0  0  0  0  0  0
   -0.8924   -0.1045   -3.0594 C   0  0  0  0  0  0  0  0  0  0  0  0
   -1.6588    0.5240   -4.0510 C   0  0  0  0  0  0  0  0  0  0  0  0
   -3.4686    0.8522   -2.4580 C   0  0  0  0  0  0  0  0  0  0  0  0
   -3.0840    0.1180   -0.4328 H   0  0  0  0  0  0  0  0  0  0  0  0
    0.1388   -0.4227   -3.2573 H   0  0  0  0  0  0  0  0  0  0  0  0
   -1.2349    0.6681   -5.0549 H   0  0  0  0  0  0  0  0  0  0  0  0
   -4.4655    1.2470   -2.2153 H   0  0  0  0  0  0  0  0  0  0  0  0
   -3.5445    1.4897   -4.5343 H   0  0  0  0  0  0  0  0  0  0  0  0
    2.9923   -0.0797    0.0577 H   0  0  0  0  0  0  0  0  0  0  0  0
    0.9633   -1.6310    3.5608 H   0  0  0  0  0  0  0  0  0  0  0  0
    5.0065   -0.1132    3.9098 H   0  0  0  0  0  0  0  0  0  0  0  0
   -1.1315   -2.4786    1.8629 C   0  0  0  0  0  0  0  0  0  0  0  0
   -1.7559   -1.5743    1.7239 H   0  0  0  0  0  0  0  0  0  0  0  0
   -0.7192   -2.4463    2.8881 H   0  0  0  0  0  0  0  0  0  0  0  0
   -1.7647   -3.3841    1.7921 H   0  0  0  0  0  0  0  0  0  0  0  0
    0.9314   -3.7120    1.0824 C   0  0  0  0  0  0  0  0  0  0  0  0
    1.8359   -3.6818    0.4485 H   0  0  0  0  0  0  0  0  0  0  0  0
    0.3858   -4.6555    0.8807 H   0  0  0  0  0  0  0  0  0  0  0  0
    1.2604   -3.7337    2.1383 H   0  0  0  0  0  0  0  0  0  0  0  0
   -1.8855   -3.1495   -0.8576 C   0  0  0  0  0  0  0  0  0  0  0  0
   -1.7915   -4.2328   -0.6437 H   0  0  0  0  0  0  0  0  0  0  0  0
   -2.2008   -3.0412   -1.9138 H   0  0  0  0  0  0  0  0  0  0  0  0
   -2.6840   -2.7284   -0.2211 H   0  0  0  0  0  0  0  0  0  0  0  0
    0.4766   -2.9338   -1.6863 C   0  0  0  0  0  0  0  0  0  0  0  0
    0.6322   -4.0280   -1.6166 H   0  0  0  0  0  0  0  0  0  0  0  0
    1.4505   -2.4229   -1.5583 H   0  0  0  0  0  0  0  0  0  0  0  0
    0.1003   -2.7147   -2.7040 H   0  0  0  0  0  0  0  0  0  0  0  0
  1  2  1  0  0  0  0
  1  5  1  0  0  0  0
  3  1  1  0  0  0  0
  4  1  1  0  0  0  0
  5  6  1  0  0  0  0
  5 16  1  0  0  0  0
  5  7  1  0  0  0  0
  7  9  1  0  0  0  0
  7  8  1  0  0  0  0
  9 10  1  0  0  0  0
 11  9  1  0  0  0  0
 12  9  1  0  0  0  0
 13 14  1  0  0  0  0
 13 15  1  0  0  0  0
 13  7  1  0  0  0  0
 16 13  1  0  0  0  0
 16 17  1  0  0  0  0
 16 18  1  0  0  0  0
 19 20  1  0  0  0  0
 19 23  1  0  0  0  0
 20 21  1  0  0  0  0
 22 23  1  0  0  0  0
 24 27  2  0  0  0  0
 27 28  1  0  0  0  0
 25 28  2  0  0  0  0
 25 29  1  0  0  0  0
 26 29  2  0  0  0  0
 24 26  1  0  0  0  0
 28 30  1  0  0  0  0
 29 31  1  0  0  0  0
 20 24  1  0  0  0  0
 32 35  2  0  0  0  0
 35 36  1  0  0  0  0
 33 36  2  0  0  0  0
 33 37  1  0  0  0  0
 34 37  2  0  0  0  0
 32 34  1  0  0  0  0
 36 40  1  0  0  0  0
 37 41  1  0  0  0  0
 33 42  1  0  0  0  0
 34 38  1  0  0  0  0
 35 39  1  0  0  0  0
 23 32  1  0  0  0  0
 27 43  1  0  0  0  0
 26 44  1  0  0  0  0
 25 45  1  0  0  0  0
 21 22  1  0  0  0  0
 46 47  1  0  0  0  0
 46 48  1  0  0  0  0
 46 49  1  0  0  0  0
 21 46  1  0  0  0  0
 50 51  1  0  0  0  0
 50 52  1  0  0  0  0
 50 53  1  0  0  0  0
 21 50  1  0  0  0  0
 54 55  1  0  0  0  0
 54 56  1  0  0  0  0
 54 57  1  0  0  0  0
 22 54  1  0  0  0  0
 58 59  1  0  0  0  0
 58 60  1  0  0  0  0
 58 61  1  0  0  0  0
 22 58  1  0  0  0  0
 16 19  1  0  0  0  0
M  END
>  <DFT-ENERGY>
-2056.87435815

$$$$
