
  CDK     08012403263D

 53 57  0  0  0  0  0  0  0  0999 V2000
    0.4885   -3.2032    0.1595 H   0  0  0  0  0  0  0  0  0  0  0  0
    1.6600   -3.3889   -0.1679 C   0  0  0  0  0  0  0  0  0  0  0  0
    1.5414   -4.4751    0.0301 H   0  0  0  0  0  0  0  0  0  0  0  0
    2.3405   -2.4597    0.7762 C   0  0  0  0  0  0  0  0  0  0  0  0
    3.3034   -2.0217    0.4700 H   0  0  0  0  0  0  0  0  0  0  0  0
    2.2383   -2.6943    1.8497 H   0  0  0  0  0  0  0  0  0  0  0  0
    0.7251   -1.4604   -0.0706 Ru  0  0  0  0  0  0  0  0  0  0  0  0
    1.5570   -2.7852   -1.5135 C   0  0  0  0  0  0  0  0  0  0  0  0
    2.4583   -2.3555   -1.9698 H   0  0  0  0  0  0  0  0  0  0  0  0
    0.8310   -3.2387   -2.2108 H   0  0  0  0  0  0  0  0  0  0  0  0
    2.4300   -0.0170   -1.0600 Cl  0  0  0  0  0  0  0  0  0  0  0  0
   -0.7026   -1.9835    1.7650 Cl  0  0  0  0  0  0  0  0  0  0  0  0
   -0.0476    0.4213    0.1208 C   0  0  0  0  0  0  0  0  0  0  0  0
   -1.0679    0.8933   -0.6574 N   0  0  0  0  0  0  0  0  0  0  0  0
   -1.4297    2.1800   -0.2573 C   0  0  0  0  0  0  0  0  0  0  0  0
   -0.6137    2.5043    0.7955 C   0  0  0  0  0  0  0  0  0  0  0  0
    0.2230    1.4112    1.0106 N   0  0  0  0  0  0  0  0  0  0  0  0
   -1.6725    0.1112   -1.7092 C   0  0  0  0  0  0  0  0  0  0  0  0
   -2.8008   -1.4718   -3.7264 C   0  0  0  0  0  0  0  0  0  0  0  0
   -2.8085   -0.6708   -1.4014 C   0  0  0  0  0  0  0  0  0  0  0  0
   -1.1245    0.1800   -3.0101 C   0  0  0  0  0  0  0  0  0  0  0  0
   -1.7048   -0.6336   -3.9985 C   0  0  0  0  0  0  0  0  0  0  0  0
   -3.3482   -1.4608   -2.4317 C   0  0  0  0  0  0  0  0  0  0  0  0
   -1.2889   -0.5987   -5.0173 H   0  0  0  0  0  0  0  0  0  0  0  0
   -4.2304   -2.0812   -2.2106 H   0  0  0  0  0  0  0  0  0  0  0  0
    0.0184    1.1013   -3.3314 C   0  0  0  0  0  0  0  0  0  0  0  0
    0.9391    0.8001   -2.7862 H   0  0  0  0  0  0  0  0  0  0  0  0
   -0.2044    2.1436   -3.0233 H   0  0  0  0  0  0  0  0  0  0  0  0
    0.2295    1.0990   -4.4169 H   0  0  0  0  0  0  0  0  0  0  0  0
   -3.4279   -0.6508   -0.0312 C   0  0  0  0  0  0  0  0  0  0  0  0
   -4.3707   -1.2286   -0.0205 H   0  0  0  0  0  0  0  0  0  0  0  0
   -3.6517    0.3840    0.2999 H   0  0  0  0  0  0  0  0  0  0  0  0
   -2.7376   -1.0881    0.7216 H   0  0  0  0  0  0  0  0  0  0  0  0
   -3.3726   -2.3644   -4.7990 C   0  0  0  0  0  0  0  0  0  0  0  0
   -3.2685   -1.9120   -5.8047 H   0  0  0  0  0  0  0  0  0  0  0  0
   -4.4444   -2.5798   -4.6228 H   0  0  0  0  0  0  0  0  0  0  0  0
   -2.8416   -3.3401   -4.8236 H   0  0  0  0  0  0  0  0  0  0  0  0
   -0.5584    3.4112    1.4004 H   0  0  0  0  0  0  0  0  0  0  0  0
   -2.2240    2.7359   -0.7593 H   0  0  0  0  0  0  0  0  0  0  0  0
    1.2664    1.2951    2.0289 C   0  0  0  0  0  0  0  0  0  0  0  0
    2.3450    2.3839    1.9695 C   0  0  0  0  0  0  0  0  0  0  0  0
    3.0578    2.1723    3.3108 C   0  0  0  0  0  0  0  0  0  0  0  0
    1.9077    1.9157    4.3174 C   0  0  0  0  0  0  0  0  0  0  0  0
    0.7378    1.3256    3.4812 C   0  0  0  0  0  0  0  0  0  0  0  0
    1.7345    0.3133    1.8132 H   0  0  0  0  0  0  0  0  0  0  0  0
    1.8740    3.3915    1.9369 H   0  0  0  0  0  0  0  0  0  0  0  0
    2.9921    2.2730    1.0789 H   0  0  0  0  0  0  0  0  0  0  0  0
    3.7077    1.2746    3.2372 H   0  0  0  0  0  0  0  0  0  0  0  0
    3.7067    3.0214    3.6003 H   0  0  0  0  0  0  0  0  0  0  0  0
    1.5962    2.8686    4.7919 H   0  0  0  0  0  0  0  0  0  0  0  0
    2.2212    1.2420    5.1381 H   0  0  0  0  0  0  0  0  0  0  0  0
   -0.1614    1.9726    3.5405 H   0  0  0  0  0  0  0  0  0  0  0  0
    0.4234    0.3138    3.8005 H   0  0  0  0  0  0  0  0  0  0  0  0
  1  2  1  0  0  0  0
  1  7  1  0  0  0  0
  2  3  1  0  0  0  0
  2  4  1  0  0  0  0
  4  5  1  0  0  0  0
  6  4  1  0  0  0  0
  7  8  1  0  0  0  0
  7  4  1  0  0  0  0
  8  2  1  0  0  0  0
  8  9  1  0  0  0  0
 10  8  1  0  0  0  0
  7 11  1  0  0  0  0
  7 12  1  0  0  0  0
 13 14  1  0  0  0  0
 13 17  1  0  0  0  0
 14 15  1  0  0  0  0
 15 16  2  0  0  0  0
 16 17  1  0  0  0  0
 18 21  2  0  0  0  0
 21 22  1  0  0  0  0
 19 22  2  0  0  0  0
 19 23  1  0  0  0  0
 20 23  2  0  0  0  0
 18 20  1  0  0  0  0
 22 24  1  0  0  0  0
 23 25  1  0  0  0  0
 14 18  1  0  0  0  0
 26 27  1  0  0  0  0
 26 28  1  0  0  0  0
 26 29  1  0  0  0  0
 21 26  1  0  0  0  0
 30 31  1  0  0  0  0
 30 32  1  0  0  0  0
 30 33  1  0  0  0  0
 20 30  1  0  0  0  0
 34 35  1  0  0  0  0
 34 36  1  0  0  0  0
 34 37  1  0  0  0  0
 19 34  1  0  0  0  0
 16 38  1  0  0  0  0
 15 39  1  0  0  0  0
 40 45  1  0  0  0  0
 40 41  1  0  0  0  0
 40 44  1  0  0  0  0
 41 46  1  0  0  0  0
 41 47  1  0  0  0  0
 41 42  1  0  0  0  0
 42 48  1  0  0  0  0
 42 49  1  0  0  0  0
 42 43  1  0  0  0  0
 43 50  1  0  0  0  0
 43 51  1  0  0  0  0
 43 44  1  0  0  0  0
 44 52  1  0  0  0  0
 44 53  1  0  0  0  0
 17 40  1  0  0  0  0
  7 13  1  0  0  0  0
M  END
>  <DFT-ENERGY>
-1902.19976646

$$$$
