
  CDK     02162404053D

 61 64  0  0  0  0  0  0  0  0999 V2000
    1.2596   -0.7412   -0.1304 Ru  0  0  0  0  0  0  0  0  0  0  0  0
    2.7221   -0.8318   -1.4297 C   0  0  0  0  0  0  0  0  0  0  0  0
    2.4567   -1.2870   -2.4003 H   0  0  0  0  0  0  0  0  0  0  0  0
    3.1780   -1.8936   -0.3474 C   0  0  0  0  0  0  0  0  0  0  0  0
    3.2346   -2.8654   -0.8703 H   0  0  0  0  0  0  0  0  0  0  0  0
    2.2163   -2.1115    0.8912 C   0  0  0  0  0  0  0  0  0  0  0  0
    2.6506   -1.7628    1.8450 H   0  0  0  0  0  0  0  0  0  0  0  0
    1.7402   -3.1077    0.9056 H   0  0  0  0  0  0  0  0  0  0  0  0
    4.1375   -1.5290    0.0620 H   0  0  0  0  0  0  0  0  0  0  0  0
    3.3724    0.0598   -1.4690 H   0  0  0  0  0  0  0  0  0  0  0  0
    0.1816   -2.5200   -1.3143 Cl  0  0  0  0  0  0  0  0  0  0  0  0
    2.5242    0.9234    1.0332 Cl  0  0  0  0  0  0  0  0  0  0  0  0
   -1.4246    0.0050    0.9486 N   0  0  0  0  0  0  0  0  0  0  0  0
   -0.8209    1.3134   -0.7242 N   0  0  0  0  0  0  0  0  0  0  0  0
   -0.4499    0.2688    0.0496 C   0  0  0  0  0  0  0  0  0  0  0  0
   -2.5051    1.0112    0.8889 C   0  0  0  0  0  0  0  0  0  0  0  0
   -2.4431    1.6879    1.7686 H   0  0  0  0  0  0  0  0  0  0  0  0
   -3.4959    0.5185    0.8983 H   0  0  0  0  0  0  0  0  0  0  0  0
   -2.2061    1.7386   -0.4354 C   0  0  0  0  0  0  0  0  0  0  0  0
   -2.8818    1.4168   -1.2571 H   0  0  0  0  0  0  0  0  0  0  0  0
   -2.2640    2.8404   -0.3481 H   0  0  0  0  0  0  0  0  0  0  0  0
   -1.3306   -1.0128    1.9587 C   0  0  0  0  0  0  0  0  0  0  0  0
   -1.9845   -2.2477    1.7343 C   0  0  0  0  0  0  0  0  0  0  0  0
   -1.8477   -3.2489    2.7083 C   0  0  0  0  0  0  0  0  0  0  0  0
   -2.3413   -4.2188    2.5403 H   0  0  0  0  0  0  0  0  0  0  0  0
   -1.1015   -3.0456    3.8841 C   0  0  0  0  0  0  0  0  0  0  0  0
   -0.5147   -1.7870    4.0941 C   0  0  0  0  0  0  0  0  0  0  0  0
    0.0398   -1.5976    5.0265 H   0  0  0  0  0  0  0  0  0  0  0  0
   -0.6231   -0.7462    3.1530 C   0  0  0  0  0  0  0  0  0  0  0  0
   -2.7906   -2.4831    0.4864 C   0  0  0  0  0  0  0  0  0  0  0  0
   -3.2777   -3.4757    0.5152 H   0  0  0  0  0  0  0  0  0  0  0  0
   -2.1321   -2.4414   -0.4063 H   0  0  0  0  0  0  0  0  0  0  0  0
   -3.5855   -1.7191    0.3578 H   0  0  0  0  0  0  0  0  0  0  0  0
   -0.9391   -4.1573    4.8900 C   0  0  0  0  0  0  0  0  0  0  0  0
   -1.8905   -4.7031    5.0503 H   0  0  0  0  0  0  0  0  0  0  0  0
   -0.5888   -3.7758    5.8683 H   0  0  0  0  0  0  0  0  0  0  0  0
   -0.1952   -4.9030    4.5372 H   0  0  0  0  0  0  0  0  0  0  0  0
   -0.0077    0.5995    3.4248 C   0  0  0  0  0  0  0  0  0  0  0  0
    0.2881    0.6847    4.4873 H   0  0  0  0  0  0  0  0  0  0  0  0
   -0.7103    1.4274    3.1997 H   0  0  0  0  0  0  0  0  0  0  0  0
    0.8954    0.7681    2.7981 H   0  0  0  0  0  0  0  0  0  0  0  0
   -0.0258    1.8349   -1.8019 C   0  0  0  0  0  0  0  0  0  0  0  0
   -0.0861    1.2231   -3.0747 C   0  0  0  0  0  0  0  0  0  0  0  0
    0.7480    1.7360   -4.0854 C   0  0  0  0  0  0  0  0  0  0  0  0
    0.7191    1.2652   -5.0804 H   0  0  0  0  0  0  0  0  0  0  0  0
    1.5993    2.8314   -3.8649 C   0  0  0  0  0  0  0  0  0  0  0  0
    1.5832    3.4483   -2.6002 C   0  0  0  0  0  0  0  0  0  0  0  0
    2.2204    4.3276   -2.4177 H   0  0  0  0  0  0  0  0  0  0  0  0
    0.7751    2.9750   -1.5548 C   0  0  0  0  0  0  0  0  0  0  0  0
   -1.0108    0.0697   -3.3543 C   0  0  0  0  0  0  0  0  0  0  0  0
   -1.0370   -0.1543   -4.4373 H   0  0  0  0  0  0  0  0  0  0  0  0
   -2.0489    0.2879   -3.0294 H   0  0  0  0  0  0  0  0  0  0  0  0
   -0.6913   -0.8498   -2.8172 H   0  0  0  0  0  0  0  0  0  0  0  0
    2.5121    3.3386   -4.9529 C   0  0  0  0  0  0  0  0  0  0  0  0
    2.5166    4.4462   -4.9964 H   0  0  0  0  0  0  0  0  0  0  0  0
    2.2165    2.9533   -5.9475 H   0  0  0  0  0  0  0  0  0  0  0  0
    3.5600    3.0191   -4.7692 H   0  0  0  0  0  0  0  0  0  0  0  0
    0.7713    3.6490   -0.2101 C   0  0  0  0  0  0  0  0  0  0  0  0
    1.3661    4.5811   -0.2364 H   0  0  0  0  0  0  0  0  0  0  0  0
    1.2116    2.9741    0.5538 H   0  0  0  0  0  0  0  0  0  0  0  0
   -0.2557    3.9090    0.1200 H   0  0  0  0  0  0  0  0  0  0  0  0
  2  4  1  0  0  0  0
  2  1  1  0  0  0  0
  2  3  1  0  0  0  0
  4  6  1  0  0  0  0
  4  5  1  0  0  0  0
  6  1  1  0  0  0  0
  6  8  1  0  0  0  0
  7  6  1  0  0  0  0
  9  4  1  0  0  0  0
 10  2  1  0  0  0  0
  1 11  1  0  0  0  0
  1 12  1  0  0  0  0
 13 15  1  0  0  0  0
 13 16  1  0  0  0  0
 13 22  1  0  0  0  0
 14 15  1  0  0  0  0
 14 19  1  0  0  0  0
 14 42  1  0  0  0  0
 16 17  1  0  0  0  0
 16 18  1  0  0  0  0
 16 19  1  0  0  0  0
 19 20  1  0  0  0  0
 19 21  1  0  0  0  0
 22 23  1  0  0  0  0
 22 29  2  0  0  0  0
 23 24  2  0  0  0  0
 23 30  1  0  0  0  0
 24 25  1  0  0  0  0
 24 26  1  0  0  0  0
 26 27  2  0  0  0  0
 26 34  1  0  0  0  0
 27 28  1  0  0  0  0
 27 29  1  0  0  0  0
 29 38  1  0  0  0  0
 30 31  1  0  0  0  0
 30 32  1  0  0  0  0
 30 33  1  0  0  0  0
 34 35  1  0  0  0  0
 34 36  1  0  0  0  0
 34 37  1  0  0  0  0
 38 39  1  0  0  0  0
 38 40  1  0  0  0  0
 38 41  1  0  0  0  0
 42 43  1  0  0  0  0
 42 49  2  0  0  0  0
 43 44  2  0  0  0  0
 43 50  1  0  0  0  0
 44 45  1  0  0  0  0
 44 46  1  0  0  0  0
 46 47  2  0  0  0  0
 46 54  1  0  0  0  0
 47 48  1  0  0  0  0
 47 49  1  0  0  0  0
 49 58  1  0  0  0  0
 50 51  1  0  0  0  0
 50 52  1  0  0  0  0
 50 53  1  0  0  0  0
 54 55  1  0  0  0  0
 54 56  1  0  0  0  0
 54 57  1  0  0  0  0
 58 59  1  0  0  0  0
 58 60  1  0  0  0  0
 58 61  1  0  0  0  0
  1 15  1  0  0  0  0
M  END
>  <DFT-ENERGY>
-2056.90472807

$$$$
