QIDZOWMODN4_A2
  CDK     02052411103D

 79 83  0  0  0  0  0  0  0  0999 V2000
    1.2582    0.6885    0.0422 Ru  0  0  0  0  0  0  0  0  0  0  0  0
    3.0360    0.6885   -1.3470 O   0  0  0  0  0  0  0  0  0  0  0  0
    2.4684    1.6218    1.0463 C   0  0  0  0  0  0  0  0  0  0  0  0
    2.2356    1.9147    2.0690 H   0  0  0  0  0  0  0  0  0  0  0  0
    3.2715   -0.0867   -2.5728 C   0  0  0  0  0  0  0  0  0  0  0  0
    3.6925    0.6086   -3.3298 H   0  0  0  0  0  0  0  0  0  0  0  0
    1.8473   -0.5129   -2.9019 C   0  0  0  0  0  0  0  0  0  0  0  0
    1.4457   -1.2044   -2.1330 H   0  0  0  0  0  0  0  0  0  0  0  0
    1.1749    0.3684   -2.9206 H   0  0  0  0  0  0  0  0  0  0  0  0
    1.7828   -1.0152   -3.8704 H   0  0  0  0  0  0  0  0  0  0  0  0
    4.1976   -1.2420   -2.2379 C   0  0  0  0  0  0  0  0  0  0  0  0
    3.8647   -1.7344   -1.3033 H   0  0  0  0  0  0  0  0  0  0  0  0
    4.1986   -2.0049   -3.0229 H   0  0  0  0  0  0  0  0  0  0  0  0
    5.2309   -0.9199   -2.0715 H   0  0  0  0  0  0  0  0  0  0  0  0
    4.0282    1.4869   -0.8420 C   0  0  0  0  0  0  0  0  0  0  0  0
    5.1973    1.8356   -1.4950 C   0  0  0  0  0  0  0  0  0  0  0  0
    5.4158    1.4855   -2.5012 H   0  0  0  0  0  0  0  0  0  0  0  0
    6.0985    2.6667   -0.8375 C   0  0  0  0  0  0  0  0  0  0  0  0
    7.0210    2.9544   -1.3463 H   0  0  0  0  0  0  0  0  0  0  0  0
    5.8485    3.1383    0.4478 C   0  0  0  0  0  0  0  0  0  0  0  0
    6.5731    3.7832    0.9421 H   0  0  0  0  0  0  0  0  0  0  0  0
    4.6788    2.7780    1.0894 C   0  0  0  0  0  0  0  0  0  0  0  0
    4.4856    3.1326    2.1007 H   0  0  0  0  0  0  0  0  0  0  0  0
    3.7433    1.9626    0.4500 C   0  0  0  0  0  0  0  0  0  0  0  0
    1.8440   -1.4530    0.5896 Cl  0  0  0  0  0  0  0  0  0  0  0  0
    0.4206    2.4244   -1.3409 Cl  0  0  0  0  0  0  0  0  0  0  0  0
   -0.2993    0.7075    1.1925 C   0  0  0  0  0  0  0  0  0  0  0  0
   -0.6785    1.7571    2.2641 C   0  0  0  0  0  0  0  0  0  0  0  0
   -2.2153    1.5692    2.4743 C   0  0  0  0  0  0  0  0  0  0  0  0
   -2.5010    1.6826    3.5320 H   0  0  0  0  0  0  0  0  0  0  0  0
   -2.7758    2.3511    1.9325 H   0  0  0  0  0  0  0  0  0  0  0  0
   -2.5692    0.1583    1.9363 C   0  0  0  0  0  0  0  0  0  0  0  0
   -1.3500   -0.1554    1.0677 N   0  0  0  0  0  0  0  0  0  0  0  0
   -0.3891    3.1574    1.7144 C   0  0  0  0  0  0  0  0  0  0  0  0
    0.6757    3.2891    1.4579 H   0  0  0  0  0  0  0  0  0  0  0  0
   -0.6585    3.9456    2.4230 H   0  0  0  0  0  0  0  0  0  0  0  0
   -0.9387    3.3434    0.7777 H   0  0  0  0  0  0  0  0  0  0  0  0
    0.0363    1.5194    3.5897 C   0  0  0  0  0  0  0  0  0  0  0  0
    0.8845    0.4187    3.7809 C   0  0  0  0  0  0  0  0  0  0  0  0
    1.0979   -0.2728    2.9540 H   0  0  0  0  0  0  0  0  0  0  0  0
    1.4912    0.2000    5.0219 C   0  0  0  0  0  0  0  0  0  0  0  0
    2.1485   -0.6589    5.1548 H   0  0  0  0  0  0  0  0  0  0  0  0
    1.2620    1.0780    6.0842 C   0  0  0  0  0  0  0  0  0  0  0  0
    1.7337    0.9055    7.0490 H   0  0  0  0  0  0  0  0  0  0  0  0
    0.4256    2.1837    5.8979 C   0  0  0  0  0  0  0  0  0  0  0  0
    0.2487    2.8759    6.7194 H   0  0  0  0  0  0  0  0  0  0  0  0
   -0.1832    2.4034    4.6607 C   0  0  0  0  0  0  0  0  0  0  0  0
   -0.8309    3.2686    4.5270 H   0  0  0  0  0  0  0  0  0  0  0  0
   -2.7093   -0.8380    3.0874 C   0  0  0  0  0  0  0  0  0  0  0  0
   -3.5358   -0.5621    3.7510 H   0  0  0  0  0  0  0  0  0  0  0  0
   -1.7980   -0.8825    3.7000 H   0  0  0  0  0  0  0  0  0  0  0  0
   -2.9107   -1.8596    2.7260 H   0  0  0  0  0  0  0  0  0  0  0  0
   -3.8434    0.1706    1.0898 C   0  0  0  0  0  0  0  0  0  0  0  0
   -4.7177    0.4287    1.6971 H   0  0  0  0  0  0  0  0  0  0  0  0
   -4.0370   -0.8103    0.6353 H   0  0  0  0  0  0  0  0  0  0  0  0
   -3.7860    0.8955    0.2672 H   0  0  0  0  0  0  0  0  0  0  0  0
   -1.3762   -1.2959    0.1627 C   0  0  0  0  0  0  0  0  0  0  0  0
   -1.0472   -2.5977    0.6111 C   0  0  0  0  0  0  0  0  0  0  0  0
   -1.1993   -3.6766   -0.2790 C   0  0  0  0  0  0  0  0  0  0  0  0
   -0.9515   -4.6824    0.0588 H   0  0  0  0  0  0  0  0  0  0  0  0
   -1.6393   -3.4770   -1.5846 C   0  0  0  0  0  0  0  0  0  0  0  0
   -1.7589   -4.3260   -2.2565 H   0  0  0  0  0  0  0  0  0  0  0  0
   -1.9072   -2.1851   -2.0384 C   0  0  0  0  0  0  0  0  0  0  0  0
   -2.2192   -2.0295   -3.0701 H   0  0  0  0  0  0  0  0  0  0  0  0
   -1.7724   -1.0819   -1.1838 C   0  0  0  0  0  0  0  0  0  0  0  0
   -0.4923   -2.9068    1.9768 C   0  0  0  0  0  0  0  0  0  0  0  0
   -0.2871   -1.9783    2.5487 H   0  0  0  0  0  0  0  0  0  0  0  0
    0.5125   -3.3761    1.8500 H   0  0  0  0  0  0  0  0  0  0  0  0
   -1.3913   -3.8481    2.7779 C   0  0  0  0  0  0  0  0  0  0  0  0
   -1.4748   -4.8331    2.3050 H   0  0  0  0  0  0  0  0  0  0  0  0
   -2.4102   -3.4428    2.8739 H   0  0  0  0  0  0  0  0  0  0  0  0
   -0.9964   -4.0011    3.7885 H   0  0  0  0  0  0  0  0  0  0  0  0
   -1.9967    0.2945   -1.7528 C   0  0  0  0  0  0  0  0  0  0  0  0
   -1.1467    0.5307   -2.4386 H   0  0  0  0  0  0  0  0  0  0  0  0
   -1.9279    1.0842   -0.9714 H   0  0  0  0  0  0  0  0  0  0  0  0
   -3.3219    0.4340   -2.4995 C   0  0  0  0  0  0  0  0  0  0  0  0
   -3.3420   -0.1700   -3.4140 H   0  0  0  0  0  0  0  0  0  0  0  0
   -3.4893    1.4770   -2.7963 H   0  0  0  0  0  0  0  0  0  0  0  0
   -4.1709    0.1204   -1.8820 H   0  0  0  0  0  0  0  0  0  0  0  0
  1  2  1  0  0  0  0
  1  3  2  0  0  0  0
  3  4  1  0  0  0  0
  2  5  1  0  0  0  0
  5  6  1  0  0  0  0
  5  7  1  0  0  0  0
  7  8  1  0  0  0  0
  7  9  1  0  0  0  0
  7 10  1  0  0  0  0
  5 11  1  0  0  0  0
 11 12  1  0  0  0  0
 11 13  1  0  0  0  0
 11 14  1  0  0  0  0
  2 15  1  0  0  0  0
 15 24  1  0  0  0  0
 15 16  2  0  0  0  0
 16 17  1  0  0  0  0
 16 18  1  0  0  0  0
 18 19  1  0  0  0  0
 18 20  2  0  0  0  0
 20 21  1  0  0  0  0
 20 22  1  0  0  0  0
 22 24  2  0  0  0  0
 22 23  1  0  0  0  0
  3 24  1  0  0  0  0
  1 25  1  0  0  0  0
  1 26  1  0  0  0  0
 27 33  1  0  0  0  0
 28 29  1  0  0  0  0
 28 34  1  0  0  0  0
 28 38  1  0  0  0  0
 29 30  1  0  0  0  0
 29 31  1  0  0  0  0
 29 32  1  0  0  0  0
 32 33  1  0  0  0  0
 32 49  1  0  0  0  0
 32 53  1  0  0  0  0
 33 57  1  0  0  0  0
 34 35  1  0  0  0  0
 34 36  1  0  0  0  0
 34 37  1  0  0  0  0
 38 39  1  0  0  0  0
 38 47  2  0  0  0  0
 39 40  1  0  0  0  0
 39 41  2  0  0  0  0
 41 42  1  0  0  0  0
 41 43  1  0  0  0  0
 43 44  1  0  0  0  0
 43 45  2  0  0  0  0
 45 46  1  0  0  0  0
 45 47  1  0  0  0  0
 47 48  1  0  0  0  0
 49 50  1  0  0  0  0
 49 51  1  0  0  0  0
 49 52  1  0  0  0  0
 53 54  1  0  0  0  0
 53 55  1  0  0  0  0
 53 56  1  0  0  0  0
 57 58  1  0  0  0  0
 57 65  2  0  0  0  0
 58 59  2  0  0  0  0
 58 66  1  0  0  0  0
 59 60  1  0  0  0  0
 59 61  1  0  0  0  0
 61 62  1  0  0  0  0
 61 63  2  0  0  0  0
 63 64  1  0  0  0  0
 63 65  1  0  0  0  0
 65 73  1  0  0  0  0
 66 67  1  0  0  0  0
 66 68  1  0  0  0  0
 66 69  1  0  0  0  0
 69 70  1  0  0  0  0
 69 71  1  0  0  0  0
 69 72  1  0  0  0  0
 73 74  1  0  0  0  0
 73 75  1  0  0  0  0
 73 76  1  0  0  0  0
 76 77  1  0  0  0  0
 76 78  1  0  0  0  0
 76 79  1  0  0  0  0
 27 28  1  0  0  0  0
  1 27  1  0  0  0  0
M  END
> <FrozenCore-PM6_ENERGY>
25.968

> <RMSD_CONF_CG-CS>
1.040210

> <RMSD_CONF_GO-CS>
0.000000

> <UID>


> <freeEnergyA>
-2425.34045356

> <freeEnergyF>
-2425.32053361

> <freeEnergyE>
-2425.34045356

> <freeEnergyC>
-2080.08595383

> <freeEnergyL>
-947.4670447

> <freeEnergyX>
-2158.61318059

> <freeEnergyZ>
-2080.0583984

> <freeEnergyD>
-2080.10815515

> <G_Propene>
-117.738020895

> <G_Ethene>
-78.4716324751

> <G_HoveydaProd>
-502.204109499

> <G_SIMes>
-924.27249048

> <G_HG_RuCl2_SIMes>
-2402.13728523

> <DG_referenceProductionBarrier>
0.01468968

> <hartree_to_kcalmol>
627.49467516

> <DFT_IDENTIFIER>
1707183255877

> <DFT_MACHINE>
158.36.42.38

> <XTB_IDENTIFIER>
NREC

> <XTB_MACHINE>
NREC

> <DE_Synth>
-5.4053081562425076

> <DESCRIPTOR_DEFINITION_1>
desc1=( echo "1 * ( e( $hartree_to_kcalmol * ( ( $freeEnergyZ - $freeEnergyD ) - ( $freeEnergyX + 2*$G_Ethene - $freeEnergyD - 2*$G_Propene ) - $DDG_reference_HGII ) / $kT ) ) " | bc -l )

> <DESCRIPTOR_DEFINITION_2>
desc2=$( echo "1 * ( $hartree_to_kcalmol * ( ( $freeEnergyZ - $freeEnergyD ) - ( $freeEnergyX + 2*$G_Ethene - $freeEnergyD - 2*$G_Propene ) ) )" | bc -l )

> <DESCRIPTOR_DEFINITION_3>
desc3=$( echo "1 * $hartree_to_kcalmol * ( $DG_referenceProductionBarrier - ( $freeEnergyX + 2*$G_Ethene - $freeEnergyD - 2*$G_Propene ) )" | bc -l )

> <WEIGHT_DEFINITION_1>
w1=$( echo "1 / ( 1 + e( $hartree_to_kcalmol * ( ( ( $freeEnergyX + 2*$G_Ethene - $freeEnergyD - 2*$G_Propene ) ) - ( $DG_referenceProductionBarrier + $magnitude4 ) ) / $kT ) )" | bc -l )

> <WEIGHT_DEFINITION_2>
w2=$( echo "1 / ( 1 + e( $hartree_to_kcalmol * ( ABS( $freeEnergyC + $G_HoveydaProd - $freeEnergyA - 2*${G_Ethene} - $DG_referencePrecursorStabilityHII ) - ( $DDG_referencePrecursorStability + $magnitude1 ) ) / $kT ) )" | bc -l )

> <WEIGHT_DEFINITION_3>
w3=$( echo "1 / ( 1 + e( $hartree_to_kcalmol * ( ( $freeEnergyE + $G_PCy3 - $G_HI_precursor - $freeEnergyL ) - $magnitude1 ) / $kT ) )" | bc -l )

> <WEIGHT_DEFINITION_4>
w4=$( echo "1 / ( 1 + e( $hartree_to_kcalmol * ( - ( $freeEnergyF - $freeEnergyA ) + $magnitude2 ) / $kT ) )" | bc -l )

> <FITNESS_DEFINITION>
fitness=$( echo "( $desc1 + $desc2 + $desc3 ) * $w1 * $w2 * $w3 * $w4" | bc -l )

> <DESCRIPTOR_1>
.79626377911455955852

> <DESCRIPTOR_2>
13.808240075531041032

> <DESCRIPTOR_3>
0.0000000001

> <WEIGHT_1>
.97550838948695831611

> <WEIGHT_2>
.99999998880583298800

> <WEIGHT_3>
.99999999999999787300

> <WEIGHT_4>
.99999981086573654169

> <FITNESS>
14.24681318055665989154

$$$$
