
  CDK     08132403083D

 56 60  0  0  0  0  0  0  0  0999 V2000
   -0.2539   -4.0047   -1.6953 C   0  0  0  0  0  0  0  0  0  0  0  0
    0.8152   -3.9365   -1.9630 H   0  0  0  0  0  0  0  0  0  0  0  0
   -0.6411   -5.0100   -1.9758 H   0  0  0  0  0  0  0  0  0  0  0  0
   -0.8013   -3.2570   -2.2988 H   0  0  0  0  0  0  0  0  0  0  0  0
   -0.4686   -3.8074   -0.2126 C   0  0  0  0  0  0  0  0  0  0  0  0
   -1.5131   -3.8796    0.1474 H   0  0  0  0  0  0  0  0  0  0  0  0
    0.5106   -4.1840    0.7435 C   0  0  0  0  0  0  0  0  0  0  0  0
    1.5172   -4.3910    0.3381 H   0  0  0  0  0  0  0  0  0  0  0  0
    0.1223   -4.8573    2.0377 C   0  0  0  0  0  0  0  0  0  0  0  0
    0.9549   -4.8965    2.7649 H   0  0  0  0  0  0  0  0  0  0  0  0
   -0.1735   -5.9040    1.8098 H   0  0  0  0  0  0  0  0  0  0  0  0
   -0.7447   -4.3438    2.4988 H   0  0  0  0  0  0  0  0  0  0  0  0
    1.3778   -2.2879    1.7627 C   0  0  0  0  0  0  0  0  0  0  0  0
    1.0771   -2.5054    2.8095 H   0  0  0  0  0  0  0  0  0  0  0  0
    2.4615   -2.3433    1.5168 H   0  0  0  0  0  0  0  0  0  0  0  0
    0.1353   -1.8070    0.5010 Ru  0  0  0  0  0  0  0  0  0  0  0  0
   -1.6585   -1.8921    2.1186 Cl  0  0  0  0  0  0  0  0  0  0  0  0
    1.9075   -1.6620   -1.1171 Cl  0  0  0  0  0  0  0  0  0  0  0  0
    0.1085    0.1742    0.4089 C   0  0  0  0  0  0  0  0  0  0  0  0
   -0.4301    0.9295   -0.5950 N   0  0  0  0  0  0  0  0  0  0  0  0
   -0.1289    2.2668   -0.5161 N   0  0  0  0  0  0  0  0  0  0  0  0
    0.6078    2.3707    0.5769 C   0  0  0  0  0  0  0  0  0  0  0  0
    0.7600    1.1134    1.1785 N   0  0  0  0  0  0  0  0  0  0  0  0
   -1.2214    0.4065   -1.6465 C   0  0  0  0  0  0  0  0  0  0  0  0
   -2.7356   -0.7089   -3.7121 C   0  0  0  0  0  0  0  0  0  0  0  0
   -1.2711    1.0574   -2.8883 C   0  0  0  0  0  0  0  0  0  0  0  0
   -1.9356   -0.7815   -1.4163 C   0  0  0  0  0  0  0  0  0  0  0  0
   -2.6857   -1.3402   -2.4605 C   0  0  0  0  0  0  0  0  0  0  0  0
   -2.0338    0.4914   -3.9169 C   0  0  0  0  0  0  0  0  0  0  0  0
   -3.2518   -2.2650   -2.2804 H   0  0  0  0  0  0  0  0  0  0  0  0
   -2.0729    0.9909   -4.8953 H   0  0  0  0  0  0  0  0  0  0  0  0
   -1.9835   -1.2169   -0.3968 H   0  0  0  0  0  0  0  0  0  0  0  0
   -0.7071    1.9878   -3.0294 H   0  0  0  0  0  0  0  0  0  0  0  0
   -3.3295   -1.1458   -4.5271 H   0  0  0  0  0  0  0  0  0  0  0  0
    1.5452    0.7950    2.3345 C   0  0  0  0  0  0  0  0  0  0  0  0
    3.0662    0.2098    4.5955 C   0  0  0  0  0  0  0  0  0  0  0  0
    0.9059    0.2833    3.4748 C   0  0  0  0  0  0  0  0  0  0  0  0
    2.9324    0.9977    2.2988 C   0  0  0  0  0  0  0  0  0  0  0  0
    3.6911    0.7077    3.4408 C   0  0  0  0  0  0  0  0  0  0  0  0
    1.6792   -0.0088    4.6076 C   0  0  0  0  0  0  0  0  0  0  0  0
   -0.1752    0.0848    3.4463 H   0  0  0  0  0  0  0  0  0  0  0  0
    3.4025    1.3726    1.3801 H   0  0  0  0  0  0  0  0  0  0  0  0
    4.7788    0.8641    3.4236 H   0  0  0  0  0  0  0  0  0  0  0  0
    1.1899   -0.4152    5.5041 H   0  0  0  0  0  0  0  0  0  0  0  0
    3.6659   -0.0178    5.4885 H   0  0  0  0  0  0  0  0  0  0  0  0
    1.1512    3.6438    1.0625 C   0  0  0  0  0  0  0  0  0  0  0  0
    2.1393    6.1480    1.8944 C   0  0  0  0  0  0  0  0  0  0  0  0
    1.3506    3.9100    2.4348 C   0  0  0  0  0  0  0  0  0  0  0  0
    1.4403    4.6500    0.1135 C   0  0  0  0  0  0  0  0  0  0  0  0
    1.9311    5.8918    0.5294 C   0  0  0  0  0  0  0  0  0  0  0  0
    1.8432    5.1564    2.8418 C   0  0  0  0  0  0  0  0  0  0  0  0
    1.1062    3.1500    3.1876 H   0  0  0  0  0  0  0  0  0  0  0  0
    1.2754    4.4360   -0.9509 H   0  0  0  0  0  0  0  0  0  0  0  0
    2.1579    6.6649   -0.2186 H   0  0  0  0  0  0  0  0  0  0  0  0
    1.9913    5.3545    3.9129 H   0  0  0  0  0  0  0  0  0  0  0  0
    2.5300    7.1229    2.2199 H   0  0  0  0  0  0  0  0  0  0  0  0
  1  2  1  0  0  0  0
  1  5  1  0  0  0  0
  1  3  1  0  0  0  0
  1  4  1  0  0  0  0
  5  6  1  0  0  0  0
  5 16  1  0  0  0  0
  5  7  1  0  0  0  0
  7  9  1  0  0  0  0
  7  8  1  0  0  0  0
  9 10  1  0  0  0  0
  9 11  1  0  0  0  0
  9 12  1  0  0  0  0
 13 14  1  0  0  0  0
 13 15  1  0  0  0  0
  7 13  1  0  0  0  0
 13 16  1  0  0  0  0
 16 17  1  0  0  0  0
 16 18  1  0  0  0  0
 19 20  1  0  0  0  0
 19 23  1  0  0  0  0
 20 21  1  0  0  0  0
 20 24  1  0  0  0  0
 22 23  1  0  0  0  0
 21 22  2  0  0  0  0
 22 46  1  0  0  0  0
 23 35  1  0  0  0  0
 24 27  2  0  0  0  0
 24 26  1  0  0  0  0
 25 28  2  0  0  0  0
 25 29  1  0  0  0  0
 25 34  1  0  0  0  0
 26 29  2  0  0  0  0
 26 33  1  0  0  0  0
 27 28  1  0  0  0  0
 27 32  1  0  0  0  0
 28 30  1  0  0  0  0
 29 31  1  0  0  0  0
 35 38  2  0  0  0  0
 35 37  1  0  0  0  0
 36 39  2  0  0  0  0
 36 40  1  0  0  0  0
 36 45  1  0  0  0  0
 37 40  2  0  0  0  0
 37 41  1  0  0  0  0
 38 39  1  0  0  0  0
 38 42  1  0  0  0  0
 39 43  1  0  0  0  0
 40 44  1  0  0  0  0
 46 49  2  0  0  0  0
 46 48  1  0  0  0  0
 47 50  2  0  0  0  0
 47 51  1  0  0  0  0
 47 56  1  0  0  0  0
 48 51  2  0  0  0  0
 48 52  1  0  0  0  0
 49 50  1  0  0  0  0
 49 53  1  0  0  0  0
 50 54  1  0  0  0  0
 51 55  1  0  0  0  0
 16 19  1  0  0  0  0
M  END
>  <DFT-ENERGY>
-2145.45244262

$$$$
