
  CDK     08132405173D

 50 55  0  0  0  0  0  0  0  0999 V2000
    1.4116    1.2971   -2.8498 H   0  0  0  0  0  0  0  0  0  0  0  0
    2.6347    1.4310   -2.8338 C   0  0  0  0  0  0  0  0  0  0  0  0
    2.6311    1.4431   -3.9457 H   0  0  0  0  0  0  0  0  0  0  0  0
    2.7800    2.6558   -1.9923 C   0  0  0  0  0  0  0  0  0  0  0  0
    3.7038    2.7631   -1.4000 H   0  0  0  0  0  0  0  0  0  0  0  0
    2.3844    3.5926   -2.4214 H   0  0  0  0  0  0  0  0  0  0  0  0
    1.4118    1.4016   -1.0791 Ru  0  0  0  0  0  0  0  0  0  0  0  0
    2.9350    0.2296   -2.0423 C   0  0  0  0  0  0  0  0  0  0  0  0
    3.8365    0.2180   -1.4174 H   0  0  0  0  0  0  0  0  0  0  0  0
    2.6067   -0.7460   -2.4397 H   0  0  0  0  0  0  0  0  0  0  0  0
    2.9719    1.0448    0.7675 Cl  0  0  0  0  0  0  0  0  0  0  0  0
   -0.4729    2.4751   -2.1159 Cl  0  0  0  0  0  0  0  0  0  0  0  0
    0.4319    1.8271    0.6672 C   0  0  0  0  0  0  0  0  0  0  0  0
    0.2509    2.8426    1.5485 N   0  0  0  0  0  0  0  0  0  0  0  0
   -0.4497    2.4622    2.6735 N   0  0  0  0  0  0  0  0  0  0  0  0
   -0.7344    1.1816    2.4822 C   0  0  0  0  0  0  0  0  0  0  0  0
   -0.2331    0.7775    1.2481 N   0  0  0  0  0  0  0  0  0  0  0  0
    0.8027    4.1562    1.4738 C   0  0  0  0  0  0  0  0  0  0  0  0
    1.9370    6.7022    1.3494 C   0  0  0  0  0  0  0  0  0  0  0  0
    1.1654    4.8060    2.6639 C   0  0  0  0  0  0  0  0  0  0  0  0
    0.9815    4.7643    0.2223 C   0  0  0  0  0  0  0  0  0  0  0  0
    1.5595    6.0400    0.1714 C   0  0  0  0  0  0  0  0  0  0  0  0
    1.7310    6.0849    2.5936 C   0  0  0  0  0  0  0  0  0  0  0  0
    1.7018    6.5242   -0.8052 H   0  0  0  0  0  0  0  0  0  0  0  0
    2.0215    6.5987    3.5210 H   0  0  0  0  0  0  0  0  0  0  0  0
    0.6477    4.2474   -0.6867 H   0  0  0  0  0  0  0  0  0  0  0  0
    1.0039    4.3000    3.6237 H   0  0  0  0  0  0  0  0  0  0  0  0
    2.3867    7.7042    1.2998 H   0  0  0  0  0  0  0  0  0  0  0  0
   -0.0822   -0.5131    0.6338 C   0  0  0  0  0  0  0  0  0  0  0  0
    0.4176   -2.9147   -0.6883 C   0  0  0  0  0  0  0  0  0  0  0  0
   -0.5343   -0.6726   -0.6898 C   0  0  0  0  0  0  0  0  0  0  0  0
    0.6174   -1.5289    1.3037 C   0  0  0  0  0  0  0  0  0  0  0  0
    0.8542   -2.7355    0.6375 C   0  0  0  0  0  0  0  0  0  0  0  0
   -0.2720   -1.8893   -1.3469 C   0  0  0  0  0  0  0  0  0  0  0  0
   -1.1125    0.1267   -1.1746 H   0  0  0  0  0  0  0  0  0  0  0  0
    0.9936   -1.3520    2.3190 H   0  0  0  0  0  0  0  0  0  0  0  0
    1.4079   -3.5356    1.1483 H   0  0  0  0  0  0  0  0  0  0  0  0
   -0.6212   -2.0263   -2.3801 H   0  0  0  0  0  0  0  0  0  0  0  0
    0.6201   -3.8626   -1.2070 H   0  0  0  0  0  0  0  0  0  0  0  0
   -1.4916    0.3591    3.4277 C   0  0  0  0  0  0  0  0  0  0  0  0
   -2.9555   -1.1513    5.2997 C   0  0  0  0  0  0  0  0  0  0  0  0
   -2.2163   -0.7791    3.0122 C   0  0  0  0  0  0  0  0  0  0  0  0
   -1.5176    0.7400    4.7878 C   0  0  0  0  0  0  0  0  0  0  0  0
   -2.2456   -0.0124    5.7147 C   0  0  0  0  0  0  0  0  0  0  0  0
   -2.9410   -1.5278    3.9482 C   0  0  0  0  0  0  0  0  0  0  0  0
   -2.2274   -1.0718    1.9542 H   0  0  0  0  0  0  0  0  0  0  0  0
   -0.9562    1.6311    5.0987 H   0  0  0  0  0  0  0  0  0  0  0  0
   -2.2562    0.2895    6.7717 H   0  0  0  0  0  0  0  0  0  0  0  0
   -3.5047   -2.4107    3.6150 H   0  0  0  0  0  0  0  0  0  0  0  0
   -3.5238   -1.7440    6.0309 H   0  0  0  0  0  0  0  0  0  0  0  0
  1  2  1  0  0  0  0
  1  7  1  0  0  0  0
  2  3  1  0  0  0  0
  2  4  1  0  0  0  0
  4  5  1  0  0  0  0
  4  6  1  0  0  0  0
  7  8  1  0  0  0  0
  4  7  1  0  0  0  0
  2  8  1  0  0  0  0
  8  9  1  0  0  0  0
  8 10  1  0  0  0  0
  7 11  1  0  0  0  0
  7 12  1  0  0  0  0
 13 14  1  0  0  0  0
 13 17  1  0  0  0  0
 14 15  1  0  0  0  0
 14 18  1  0  0  0  0
 16 17  1  0  0  0  0
 15 16  2  0  0  0  0
 16 40  1  0  0  0  0
 17 29  1  0  0  0  0
 18 21  2  0  0  0  0
 18 20  1  0  0  0  0
 19 22  2  0  0  0  0
 19 23  1  0  0  0  0
 19 28  1  0  0  0  0
 20 23  2  0  0  0  0
 20 27  1  0  0  0  0
 21 22  1  0  0  0  0
 21 26  1  0  0  0  0
 22 24  1  0  0  0  0
 23 25  1  0  0  0  0
 29 32  2  0  0  0  0
 29 31  1  0  0  0  0
 30 33  2  0  0  0  0
 30 34  1  0  0  0  0
 30 39  1  0  0  0  0
 31 34  2  0  0  0  0
 31 35  1  0  0  0  0
 32 33  1  0  0  0  0
 32 36  1  0  0  0  0
 33 37  1  0  0  0  0
 34 38  1  0  0  0  0
 40 43  2  0  0  0  0
 40 42  1  0  0  0  0
 41 44  2  0  0  0  0
 41 45  1  0  0  0  0
 41 50  1  0  0  0  0
 42 45  2  0  0  0  0
 42 46  1  0  0  0  0
 43 44  1  0  0  0  0
 43 47  1  0  0  0  0
 44 48  1  0  0  0  0
 45 49  1  0  0  0  0
  7 13  1  0  0  0  0
M  END
>  <DFT-ENERGY>
-2066.90692585

$$$$
