PhCyCyP-1_A1
  CDK     08122417533D

 72 76  0  0  0  0  0  0  0  0999 V2000
   -0.9466    0.1128   -0.7964 Ru  0  0  0  0  0  0  0  0  0  0  0  0
   -2.7210    0.2223   -2.1856 O   0  0  0  0  0  0  0  0  0  0  0  0
   -2.0970    1.1189    0.2077 C   0  0  0  0  0  0  0  0  0  0  0  0
   -1.8466    1.3969    1.2304 H   0  0  0  0  0  0  0  0  0  0  0  0
   -3.0038   -0.5369   -3.4114 C   0  0  0  0  0  0  0  0  0  0  0  0
   -3.3661    0.1832   -4.1752 H   0  0  0  0  0  0  0  0  0  0  0  0
   -1.6116   -1.0686   -3.7278 C   0  0  0  0  0  0  0  0  0  0  0  0
   -1.5751   -1.5607   -4.7035 H   0  0  0  0  0  0  0  0  0  0  0  0
   -1.2808   -1.7988   -2.9645 H   0  0  0  0  0  0  0  0  0  0  0  0
   -0.8718   -0.2425   -3.7312 H   0  0  0  0  0  0  0  0  0  0  0  0
   -4.0133   -1.6227   -3.0836 C   0  0  0  0  0  0  0  0  0  0  0  0
   -3.7275   -2.1321   -2.1425 H   0  0  0  0  0  0  0  0  0  0  0  0
   -4.0586   -2.3878   -3.8651 H   0  0  0  0  0  0  0  0  0  0  0  0
   -5.0236   -1.2286   -2.9319 H   0  0  0  0  0  0  0  0  0  0  0  0
   -3.6622    1.0803   -1.6806 C   0  0  0  0  0  0  0  0  0  0  0  0
   -4.8075    1.5006   -2.3336 C   0  0  0  0  0  0  0  0  0  0  0  0
   -5.0471    1.1643   -3.3398 H   0  0  0  0  0  0  0  0  0  0  0  0
   -5.6558    2.3855   -1.6761 C   0  0  0  0  0  0  0  0  0  0  0  0
   -6.5591    2.7296   -2.1848 H   0  0  0  0  0  0  0  0  0  0  0  0
   -5.3773    2.8408   -0.3908 C   0  0  0  0  0  0  0  0  0  0  0  0
   -6.0612    3.5287    0.1037 H   0  0  0  0  0  0  0  0  0  0  0  0
   -4.2320    2.4091    0.2508 C   0  0  0  0  0  0  0  0  0  0  0  0
   -4.0182    2.7496    1.2628 H   0  0  0  0  0  0  0  0  0  0  0  0
   -3.3485    1.5375   -0.3886 C   0  0  0  0  0  0  0  0  0  0  0  0
   -1.6767   -2.0280   -0.2388 Cl  0  0  0  0  0  0  0  0  0  0  0  0
   -0.0188    1.7668   -2.1572 Cl  0  0  0  0  0  0  0  0  0  0  0  0
    0.7277    0.0701    0.6452 P   0  0  0  0  0  0  0  0  0  0  0  0
    2.1927   -0.9064   -0.1259 C   0  0  0  0  0  0  0  0  0  0  0  0
    2.9046   -1.1993    0.6815 H   0  0  0  0  0  0  0  0  0  0  0  0
    1.6305   -2.1699   -0.7928 C   0  0  0  0  0  0  0  0  0  0  0  0
    1.0808   -2.8108   -0.0713 H   0  0  0  0  0  0  0  0  0  0  0  0
    0.8897   -1.9159   -1.5906 H   0  0  0  0  0  0  0  0  0  0  0  0
    3.5646   -2.1342   -2.4350 C   0  0  0  0  0  0  0  0  0  0  0  0
    2.9224   -1.8911   -3.3040 H   0  0  0  0  0  0  0  0  0  0  0  0
    4.4134   -2.7185   -2.8358 H   0  0  0  0  0  0  0  0  0  0  0  0
    0.3402   -0.8493    2.2960 C   0  0  0  0  0  0  0  0  0  0  0  0
   -0.3417   -1.7032    2.0248 H   0  0  0  0  0  0  0  0  0  0  0  0
    1.5095    1.6743    1.2200 C   0  0  0  0  0  0  0  0  0  0  0  0
    2.9323   -0.0361   -1.1495 C   0  0  0  0  0  0  0  0  0  0  0  0
    2.2399    0.3166   -1.9492 H   0  0  0  0  0  0  0  0  0  0  0  0
    3.3465    0.8805   -0.6836 H   0  0  0  0  0  0  0  0  0  0  0  0
    4.0770   -0.8363   -1.7948 C   0  0  0  0  0  0  0  0  0  0  0  0
    4.5788   -0.2131   -2.5593 H   0  0  0  0  0  0  0  0  0  0  0  0
    4.8470   -1.0705   -1.0359 H   0  0  0  0  0  0  0  0  0  0  0  0
    2.7733   -2.9815   -1.4284 C   0  0  0  0  0  0  0  0  0  0  0  0
    3.4508   -3.3583   -0.6391 H   0  0  0  0  0  0  0  0  0  0  0  0
    2.3601   -3.8767   -1.9302 H   0  0  0  0  0  0  0  0  0  0  0  0
   -0.4173    0.1031    3.2309 C   0  0  0  0  0  0  0  0  0  0  0  0
    0.2033    0.9840    3.4976 H   0  0  0  0  0  0  0  0  0  0  0  0
   -1.3349    0.4975    2.7392 H   0  0  0  0  0  0  0  0  0  0  0  0
    1.5822   -1.4259    2.9851 C   0  0  0  0  0  0  0  0  0  0  0  0
    2.3162   -0.6259    3.2261 H   0  0  0  0  0  0  0  0  0  0  0  0
    2.1059   -2.1492    2.3274 H   0  0  0  0  0  0  0  0  0  0  0  0
    0.4088   -1.2187    5.2293 C   0  0  0  0  0  0  0  0  0  0  0  0
    1.0679   -0.4042    5.5856 H   0  0  0  0  0  0  0  0  0  0  0  0
    0.0941   -1.7757    6.1315 H   0  0  0  0  0  0  0  0  0  0  0  0
    1.1874   -2.1461    4.2869 C   0  0  0  0  0  0  0  0  0  0  0  0
    0.5718   -3.0356    4.0474 H   0  0  0  0  0  0  0  0  0  0  0  0
    2.0932   -2.5273    4.7932 H   0  0  0  0  0  0  0  0  0  0  0  0
   -0.8188   -0.6253    4.5251 C   0  0  0  0  0  0  0  0  0  0  0  0
   -1.3439    0.0737    5.2018 H   0  0  0  0  0  0  0  0  0  0  0  0
   -1.5437   -1.4298    4.2917 H   0  0  0  0  0  0  0  0  0  0  0  0
    0.9620    2.8868    0.8024 C   0  0  0  0  0  0  0  0  0  0  0  0
    2.6347    1.6512    2.0490 C   0  0  0  0  0  0  0  0  0  0  0  0
    1.5545    4.0907    1.2100 C   0  0  0  0  0  0  0  0  0  0  0  0
    0.0781    2.9320    0.1497 H   0  0  0  0  0  0  0  0  0  0  0  0
    3.0650    0.7092    2.4054 H   0  0  0  0  0  0  0  0  0  0  0  0
    3.2229    2.8529    2.4542 C   0  0  0  0  0  0  0  0  0  0  0  0
    2.6839    4.0740    2.0311 C   0  0  0  0  0  0  0  0  0  0  0  0
    4.1008    2.8405    3.0971 H   0  0  0  0  0  0  0  0  0  0  0  0
    1.1340    5.0384    0.8757 H   0  0  0  0  0  0  0  0  0  0  0  0
    3.1466    5.0098    2.3425 H   0  0  0  0  0  0  0  0  0  0  0  0
  2  1  1  0  0  0  0
  3  1  2  0  0  0  0
  4  3  1  0  0  0  0
  5  2  1  0  0  0  0
  6  5  1  0  0  0  0
  7  5  1  0  0  0  0
  8  7  1  0  0  0  0
  9  7  1  0  0  0  0
 10  7  1  0  0  0  0
 11  5  1  0  0  0  0
 12 11  1  0  0  0  0
 13 11  1  0  0  0  0
 14 11  1  0  0  0  0
 15  2  1  0  0  0  0
 15 24  1  0  0  0  0
 16 15  2  0  0  0  0
 17 16  1  0  0  0  0
 18 16  1  0  0  0  0
 19 18  1  0  0  0  0
 20 18  2  0  0  0  0
 21 20  1  0  0  0  0
 22 20  1  0  0  0  0
 22 24  2  0  0  0  0
 23 22  1  0  0  0  0
 24  3  1  0  0  0  0
  1 25  1  0  0  0  0
  1 26  1  0  0  0  0
 28 27  1  0  0  0  0
 29 28  1  0  0  0  0
 30 28  1  0  0  0  0
 31 30  1  0  0  0  0
 32 30  1  0  0  0  0
 33 34  1  0  0  0  0
 33 45  1  0  0  0  0
 35 33  1  0  0  0  0
 36 27  1  0  0  0  0
 37 36  1  0  0  0  0
 38 27  1  0  0  0  0
 39 28  1  0  0  0  0
 39 42  1  0  0  0  0
 40 39  1  0  0  0  0
 41 39  1  0  0  0  0
 42 33  1  0  0  0  0
 43 42  1  0  0  0  0
 44 42  1  0  0  0  0
 45 30  1  0  0  0  0
 46 45  1  0  0  0  0
 47 45  1  0  0  0  0
 48 36  1  0  0  0  0
 49 48  1  0  0  0  0
 50 48  1  0  0  0  0
 51 36  1  0  0  0  0
 52 51  1  0  0  0  0
 53 51  1  0  0  0  0
 54 55  1  0  0  0  0
 54 57  1  0  0  0  0
 54 60  1  0  0  0  0
 56 54  1  0  0  0  0
 57 51  1  0  0  0  0
 58 57  1  0  0  0  0
 59 57  1  0  0  0  0
 60 48  1  0  0  0  0
 61 60  1  0  0  0  0
 62 60  1  0  0  0  0
 63 38  2  0  0  0  0
 64 38  1  0  0  0  0
 65 63  1  0  0  0  0
 65 69  2  0  0  0  0
 66 63  1  0  0  0  0
 67 64  1  0  0  0  0
 68 64  2  0  0  0  0
 69 68  1  0  0  0  0
 70 68  1  0  0  0  0
 71 65  1  0  0  0  0
 72 69  1  0  0  0  0
  1 27  1  0  0  0  0
M  END
> <FrozenCore-PM6_ENERGY>
312.924

> <RMSD_CONF_CG-CS>
0.424490

> <RMSD_CONF_GO-CS>
0.000000

> <UID>


> <DESCRIPTOR_DEFINITION_1>
desc1=( echo "1 * ( e( $hartree_to_kcalmol * ( ( $freeEnergyZ - $freeEnergyD ) - ( $freeEnergyX + 2*$G_Ethene - $freeEnergyD - 2*$G_Propene ) - $DDG_reference_HGII ) / $kT ) ) " | bc -l )

> <DESCRIPTOR_DEFINITION_2>
desc1=( echo "1 * ( e( $hartree_to_kcalmol * ( ( $freeEnergyZ - $freeEnergyD ) - ( $freeEnergyX + 2*$G_Ethene - $freeEnergyD - 2*$G_Propene ) - $DDG_reference_HGII ) / $kT ) ) " | bc -l )

> <DESCRIPTOR_DEFINITION_3>
desc1=( echo "1 * ( e( $hartree_to_kcalmol * ( ( $freeEnergyZ - $freeEnergyD ) - ( $freeEnergyX + 2*$G_Ethene - $freeEnergyD - 2*$G_Propene ) - $DDG_reference_HGII ) / $kT ) ) " | bc -l )

> <WEIGHT_DEFINITION_1>
w1=$( echo "1 / ( 1 + e( $hartree_to_kcalmol * ( ( ( $freeEnergyX + 2*$G_Ethene - $freeEnergyD - 2*$G_Propene ) ) - ( $DG_referenceProductionBarrier + $magnitude4 ) ) / $kT ) )" | bc -l )

> <WEIGHT_DEFINITION_2>
w1=$( echo "1 / ( 1 + e( $hartree_to_kcalmol * ( ( ( $freeEnergyX + 2*$G_Ethene - $freeEnergyD - 2*$G_Propene ) ) - ( $DG_referenceProductionBarrier + $magnitude4 ) ) / $kT ) )" | bc -l )

> <WEIGHT_DEFINITION_3>
w1=$( echo "1 / ( 1 + e( $hartree_to_kcalmol * ( ( ( $freeEnergyX + 2*$G_Ethene - $freeEnergyD - 2*$G_Propene ) ) - ( $DG_referenceProductionBarrier + $magnitude4 ) ) / $kT ) )" | bc -l )

> <WEIGHT_DEFINITION_4>
w1=$( echo "1 / ( 1 + e( $hartree_to_kcalmol * ( ( ( $freeEnergyX + 2*$G_Ethene - $freeEnergyD - 2*$G_Propene ) ) - ( $DG_referenceProductionBarrier + $magnitude4 ) ) / $kT ) )" | bc -l )

> <CALCULATION_OF_OVERALL_FITNESS>
fitness=$( echo "( $desc1 + $desc2 + $desc3 ) * ( $w1 * $w2 * $w3 * $w4 )" | bc -l )

> <freeEnergyA>
-2520.36678744

> <freeEnergyF>
-2520.34243088

> <freeEnergyE>
-2520.36678744

> <freeEnergyC>
-2175.09203145

> <freeEnergyL>
-1042.52373328

> <freeEnergyX>
-2253.62927838

> <freeEnergyZ>
-2175.08189142

> <freeEnergyD>
-2175.11635111

> <G_Propene>
-117.738020895

> <G_Ethene>
-78.4716324751

> <G_HoveydaProd>
-502.204109499

> <G_SIMes>
-924.27249048

> <G_HG_RuCl2_SIMes>
-2402.13728523

> <DG_referenceProductionBarrier>
0.01468968

> <DG_referencePrecursorStabilityHII>
-0.0052201621

> <DG_referencePrecursorStabilityHI>
0.0117775312

> <DDG_referencePrecursorStability>
.0169976933

> <DG_referenceSynt>
0.0226072217

> <hartree_to_kcalmol>
627.49467516

> <boltzmann_constant>
0.0000000000000000000000138066

> <avogadro_number>
602214000000000000000000

> <jmol_to_kcalmol>
0.00023901

> <temp>
313.15

> <kT>
.6223089948281258706000000000

> <magnitude1>
1.43290809

> <magnitude2>
2.86581618

> <magnitude3>
4.29872427

> <magnitude4>
5.73163236

> <DFT_IDENTIFIER>
1723541003243

> <DFT_MACHINE>
158.39.114.73

> <XTB_IDENTIFIER>
NREC

> <XTB_MACHINE>
NREC

> <DESCRIPTOR_1>
.00045981837888797315

> <DESCRIPTOR_2>
9.167772628947554232

> <DESCRIPTOR_3>
1.519701116509621800

> <WEIGHT_1>
.99999130108729984934

> <WEIGHT_2>
.53764738555879455308

> <WEIGHT_3>
.95993715583449647756

> <WEIGHT_4>
.99999999784265734139

> <FITNESS>
5.51607683601627930231

$$$$
