
  CDK     08132407413D

 58 62  0  0  0  0  0  0  0  0999 V2000
    1.1364   -0.5913   -3.9537 H   0  0  0  0  0  0  0  0  0  0  0  0
    2.3601   -0.7187   -3.9683 C   0  0  0  0  0  0  0  0  0  0  0  0
    2.2924   -0.5501   -5.0679 H   0  0  0  0  0  0  0  0  0  0  0  0
    2.7778    0.3398   -3.0068 C   0  0  0  0  0  0  0  0  0  0  0  0
    3.7209    0.1827   -2.4572 H   0  0  0  0  0  0  0  0  0  0  0  0
    2.5764    1.3818   -3.3105 H   0  0  0  0  0  0  0  0  0  0  0  0
    1.1934   -0.7073   -2.1846 Ru  0  0  0  0  0  0  0  0  0  0  0  0
    2.4194   -2.0527   -3.3708 C   0  0  0  0  0  0  0  0  0  0  0  0
    3.2997   -2.3479   -2.7875 H   0  0  0  0  0  0  0  0  0  0  0  0
    1.8804   -2.8664   -3.8854 H   0  0  0  0  0  0  0  0  0  0  0  0
    2.7020   -1.6123   -0.5198 Cl  0  0  0  0  0  0  0  0  0  0  0  0
   -0.5507    0.5496   -3.2777 Cl  0  0  0  0  0  0  0  0  0  0  0  0
    0.1997   -0.0507   -0.0826 P   0  0  0  0  0  0  0  0  0  0  0  0
   -0.8146   -1.5755    0.3307 C   0  0  0  0  0  0  0  0  0  0  0  0
   -1.7284   -1.2474    0.8745 H   0  0  0  0  0  0  0  0  0  0  0  0
   -1.2274   -2.1377   -1.0497 C   0  0  0  0  0  0  0  0  0  0  0  0
   -1.7792   -1.3823   -1.6424 H   0  0  0  0  0  0  0  0  0  0  0  0
   -0.2848   -2.3673   -1.6326 H   0  0  0  0  0  0  0  0  0  0  0  0
   -1.3246   -4.4805   -0.0737 C   0  0  0  0  0  0  0  0  0  0  0  0
   -0.3939   -4.8011   -0.5933 H   0  0  0  0  0  0  0  0  0  0  0  0
   -1.9563   -5.3863    0.0356 H   0  0  0  0  0  0  0  0  0  0  0  0
   -1.0466    1.3494   -0.2005 C   0  0  0  0  0  0  0  0  0  0  0  0
   -1.6912    1.0463   -1.0530 H   0  0  0  0  0  0  0  0  0  0  0  0
    1.2147    0.4783    1.3505 C   0  0  0  0  0  0  0  0  0  0  0  0
   -0.0911   -2.6464    1.1638 C   0  0  0  0  0  0  0  0  0  0  0  0
    0.8674   -2.9005    0.6670 H   0  0  0  0  0  0  0  0  0  0  0  0
    0.1747   -2.2503    2.1631 H   0  0  0  0  0  0  0  0  0  0  0  0
   -0.9582   -3.9061    1.3000 C   0  0  0  0  0  0  0  0  0  0  0  0
   -0.4179   -4.6627    1.9058 H   0  0  0  0  0  0  0  0  0  0  0  0
   -1.8921   -3.6634    1.8576 H   0  0  0  0  0  0  0  0  0  0  0  0
   -2.0433   -3.4309   -0.9279 C   0  0  0  0  0  0  0  0  0  0  0  0
   -3.0234   -3.1836   -0.4600 H   0  0  0  0  0  0  0  0  0  0  0  0
   -2.2699   -3.8260   -1.9396 H   0  0  0  0  0  0  0  0  0  0  0  0
   -0.3305    2.6561   -0.5855 C   0  0  0  0  0  0  0  0  0  0  0  0
    0.3565    2.9492    0.2391 H   0  0  0  0  0  0  0  0  0  0  0  0
    0.2860    2.4922   -1.4909 H   0  0  0  0  0  0  0  0  0  0  0  0
   -1.9157    1.5570    1.0493 C   0  0  0  0  0  0  0  0  0  0  0  0
   -1.2695    1.8407    1.9078 H   0  0  0  0  0  0  0  0  0  0  0  0
   -2.4403    0.6217    1.3352 H   0  0  0  0  0  0  0  0  0  0  0  0
   -2.2575    3.9842    0.3918 C   0  0  0  0  0  0  0  0  0  0  0  0
   -1.6446    4.3544    1.2448 H   0  0  0  0  0  0  0  0  0  0  0  0
   -3.0160    4.7679    0.1853 H   0  0  0  0  0  0  0  0  0  0  0  0
   -2.9430    2.6744    0.8008 C   0  0  0  0  0  0  0  0  0  0  0  0
   -3.6399    2.3554   -0.0064 H   0  0  0  0  0  0  0  0  0  0  0  0
   -3.5602    2.8242    1.7114 H   0  0  0  0  0  0  0  0  0  0  0  0
   -1.3505    3.7773   -0.8274 C   0  0  0  0  0  0  0  0  0  0  0  0
   -0.8214    4.7191   -1.0826 H   0  0  0  0  0  0  0  0  0  0  0  0
   -1.9698    3.5121   -1.7132 H   0  0  0  0  0  0  0  0  0  0  0  0
    2.4170    1.1694    1.1025 C   0  0  0  0  0  0  0  0  0  0  0  0
    0.7601    0.3303    2.6751 C   0  0  0  0  0  0  0  0  0  0  0  0
    3.1529    1.7047    2.1672 C   0  0  0  0  0  0  0  0  0  0  0  0
    2.7735    1.2658    0.0676 H   0  0  0  0  0  0  0  0  0  0  0  0
   -0.1821   -0.1953    2.8834 H   0  0  0  0  0  0  0  0  0  0  0  0
    1.5083    0.8561    3.7404 C   0  0  0  0  0  0  0  0  0  0  0  0
    2.7032    1.5450    3.4881 C   0  0  0  0  0  0  0  0  0  0  0  0
    1.1509    0.7271    4.7723 H   0  0  0  0  0  0  0  0  0  0  0  0
    4.0912    2.2413    1.9648 H   0  0  0  0  0  0  0  0  0  0  0  0
    3.2880    1.9569    4.3233 H   0  0  0  0  0  0  0  0  0  0  0  0
  1  2  1  0  0  0  0
  1  7  1  0  0  0  0
  2  3  1  0  0  0  0
  2  4  1  0  0  0  0
  4  5  1  0  0  0  0
  6  4  1  0  0  0  0
  7  8  1  0  0  0  0
  7  4  1  0  0  0  0
  8  2  1  0  0  0  0
  8  9  1  0  0  0  0
 10  8  1  0  0  0  0
  7 11  1  0  0  0  0
  7 12  1  0  0  0  0
 14 13  1  0  0  0  0
 15 14  1  0  0  0  0
 16 14  1  0  0  0  0
 17 16  1  0  0  0  0
 18 16  1  0  0  0  0
 19 20  1  0  0  0  0
 19 31  1  0  0  0  0
 21 19  1  0  0  0  0
 22 13  1  0  0  0  0
 23 22  1  0  0  0  0
 24 13  1  0  0  0  0
 25 14  1  0  0  0  0
 25 28  1  0  0  0  0
 26 25  1  0  0  0  0
 27 25  1  0  0  0  0
 28 19  1  0  0  0  0
 29 28  1  0  0  0  0
 30 28  1  0  0  0  0
 31 16  1  0  0  0  0
 32 31  1  0  0  0  0
 33 31  1  0  0  0  0
 34 22  1  0  0  0  0
 35 34  1  0  0  0  0
 36 34  1  0  0  0  0
 37 22  1  0  0  0  0
 38 37  1  0  0  0  0
 39 37  1  0  0  0  0
 40 41  1  0  0  0  0
 40 43  1  0  0  0  0
 40 46  1  0  0  0  0
 42 40  1  0  0  0  0
 43 37  1  0  0  0  0
 44 43  1  0  0  0  0
 45 43  1  0  0  0  0
 46 34  1  0  0  0  0
 47 46  1  0  0  0  0
 48 46  1  0  0  0  0
 49 24  2  0  0  0  0
 50 24  1  0  0  0  0
 51 49  1  0  0  0  0
 51 55  2  0  0  0  0
 52 49  1  0  0  0  0
 53 50  1  0  0  0  0
 54 50  2  0  0  0  0
 55 54  1  0  0  0  0
 56 54  1  0  0  0  0
 57 51  1  0  0  0  0
 58 55  1  0  0  0  0
  7 13  1  0  0  0  0
M  END
>  <DFT-ENERGY>
-2175.08189263

$$$$
