
  CDK     04192422253D

 61 64  0  0  0  0  0  0  0  0999 V2000
    1.2403    0.7513   -0.1384 Ru  0  0  0  0  0  0  0  0  0  0  0  0
    2.8108    0.6950   -1.3075 C   0  0  0  0  0  0  0  0  0  0  0  0
    2.6311    1.0013   -2.3530 H   0  0  0  0  0  0  0  0  0  0  0  0
    3.1578    1.9065   -0.3493 C   0  0  0  0  0  0  0  0  0  0  0  0
    3.2485    2.7976   -0.9965 H   0  0  0  0  0  0  0  0  0  0  0  0
    2.0896    2.2696    0.7615 C   0  0  0  0  0  0  0  0  0  0  0  0
    2.4421    2.0708    1.7888 H   0  0  0  0  0  0  0  0  0  0  0  0
    1.6010    3.2455    0.5921 H   0  0  0  0  0  0  0  0  0  0  0  0
    4.0817    1.6253    0.1876 H   0  0  0  0  0  0  0  0  0  0  0  0
    3.4704   -0.1785   -1.1599 H   0  0  0  0  0  0  0  0  0  0  0  0
    0.2665    2.2968   -1.6847 Cl  0  0  0  0  0  0  0  0  0  0  0  0
    2.4031   -0.6776    1.3882 Cl  0  0  0  0  0  0  0  0  0  0  0  0
   -1.3464   -0.1360    1.0591 N   0  0  0  0  0  0  0  0  0  0  0  0
   -0.9317   -1.1719   -0.8461 N   0  0  0  0  0  0  0  0  0  0  0  0
   -0.4669   -0.2633    0.0406 C   0  0  0  0  0  0  0  0  0  0  0  0
   -2.5771   -0.9163    0.8153 C   0  0  0  0  0  0  0  0  0  0  0  0
   -3.4140   -0.2340    0.5523 H   0  0  0  0  0  0  0  0  0  0  0  0
   -2.8628   -1.4843    1.7212 H   0  0  0  0  0  0  0  0  0  0  0  0
   -2.1666   -1.8222   -0.3611 C   0  0  0  0  0  0  0  0  0  0  0  0
   -1.9468   -2.8629   -0.0388 H   0  0  0  0  0  0  0  0  0  0  0  0
   -2.9270   -1.8601   -1.1642 H   0  0  0  0  0  0  0  0  0  0  0  0
   -1.1718    0.7695    2.1614 C   0  0  0  0  0  0  0  0  0  0  0  0
   -1.5623    2.1211    2.0240 C   0  0  0  0  0  0  0  0  0  0  0  0
   -1.3283    2.9818    3.1123 C   0  0  0  0  0  0  0  0  0  0  0  0
   -1.6194    4.0397    3.0184 H   0  0  0  0  0  0  0  0  0  0  0  0
   -0.7510    2.5290    4.3102 C   0  0  0  0  0  0  0  0  0  0  0  0
   -0.4325    1.1632    4.4259 C   0  0  0  0  0  0  0  0  0  0  0  0
   -0.0085    0.7833    5.3684 H   0  0  0  0  0  0  0  0  0  0  0  0
   -0.6398    0.2616    3.3702 C   0  0  0  0  0  0  0  0  0  0  0  0
   -2.2126    2.6322    0.7673 C   0  0  0  0  0  0  0  0  0  0  0  0
   -2.6025    3.6561    0.9196 H   0  0  0  0  0  0  0  0  0  0  0  0
   -3.0612    1.9905    0.4534 H   0  0  0  0  0  0  0  0  0  0  0  0
   -1.4955    2.6563   -0.0821 H   0  0  0  0  0  0  0  0  0  0  0  0
   -0.4753    3.4792    5.4483 C   0  0  0  0  0  0  0  0  0  0  0  0
   -1.0354    4.4271    5.3345 H   0  0  0  0  0  0  0  0  0  0  0  0
    0.6049    3.7341    5.4963 H   0  0  0  0  0  0  0  0  0  0  0  0
   -0.7441    3.0317    6.4260 H   0  0  0  0  0  0  0  0  0  0  0  0
   -0.2937   -1.1951    3.5146 C   0  0  0  0  0  0  0  0  0  0  0  0
    0.5600   -1.4500    2.8517 H   0  0  0  0  0  0  0  0  0  0  0  0
   -1.1436   -1.8525    3.2377 H   0  0  0  0  0  0  0  0  0  0  0  0
   -0.0081   -1.4292    4.5572 H   0  0  0  0  0  0  0  0  0  0  0  0
   -0.2142   -1.5830   -2.0215 C   0  0  0  0  0  0  0  0  0  0  0  0
   -0.5713   -1.0088   -3.2646 C   0  0  0  0  0  0  0  0  0  0  0  0
    0.1684   -1.3834   -4.3970 C   0  0  0  0  0  0  0  0  0  0  0  0
   -0.0910   -0.9346   -5.3685 H   0  0  0  0  0  0  0  0  0  0  0  0
    1.2241   -2.3112   -4.3221 C   0  0  0  0  0  0  0  0  0  0  0  0
    1.5087   -2.9009   -3.0795 C   0  0  0  0  0  0  0  0  0  0  0  0
    2.3049   -3.6585   -3.0102 H   0  0  0  0  0  0  0  0  0  0  0  0
    0.7971   -2.5647   -1.9129 C   0  0  0  0  0  0  0  0  0  0  0  0
   -1.7014   -0.0213   -3.3668 C   0  0  0  0  0  0  0  0  0  0  0  0
   -2.6501   -0.4374   -2.9681 H   0  0  0  0  0  0  0  0  0  0  0  0
   -1.8756    0.2680   -4.4200 H   0  0  0  0  0  0  0  0  0  0  0  0
   -1.4620    0.8945   -2.7869 H   0  0  0  0  0  0  0  0  0  0  0  0
    2.0277   -2.6586   -5.5499 C   0  0  0  0  0  0  0  0  0  0  0  0
    2.7572   -1.8542   -5.7842 H   0  0  0  0  0  0  0  0  0  0  0  0
    1.3793   -2.7746   -6.4413 H   0  0  0  0  0  0  0  0  0  0  0  0
    2.6001   -3.5959   -5.4124 H   0  0  0  0  0  0  0  0  0  0  0  0
    1.1085   -3.2391   -0.6046 C   0  0  0  0  0  0  0  0  0  0  0  0
    1.6365   -2.5509    0.0913 H   0  0  0  0  0  0  0  0  0  0  0  0
    1.7498   -4.1257   -0.7668 H   0  0  0  0  0  0  0  0  0  0  0  0
    0.1886   -3.5751   -0.0844 H   0  0  0  0  0  0  0  0  0  0  0  0
  2  4  1  0  0  0  0
  2  1  1  0  0  0  0
  2  3  1  0  0  0  0
  4  6  1  0  0  0  0
  4  5  1  0  0  0  0
  6  1  1  0  0  0  0
  6  8  1  0  0  0  0
  7  6  1  0  0  0  0
  9  4  1  0  0  0  0
 10  2  1  0  0  0  0
  1 11  1  0  0  0  0
  1 12  1  0  0  0  0
 13 15  1  0  0  0  0
 13 16  1  0  0  0  0
 13 22  1  0  0  0  0
 14 15  1  0  0  0  0
 14 19  1  0  0  0  0
 14 42  1  0  0  0  0
 16 17  1  0  0  0  0
 16 18  1  0  0  0  0
 16 19  1  0  0  0  0
 19 20  1  0  0  0  0
 19 21  1  0  0  0  0
 22 23  1  0  0  0  0
 22 29  2  0  0  0  0
 23 24  2  0  0  0  0
 23 30  1  0  0  0  0
 24 25  1  0  0  0  0
 24 26  1  0  0  0  0
 26 27  2  0  0  0  0
 26 34  1  0  0  0  0
 27 28  1  0  0  0  0
 27 29  1  0  0  0  0
 29 38  1  0  0  0  0
 30 31  1  0  0  0  0
 30 32  1  0  0  0  0
 30 33  1  0  0  0  0
 34 35  1  0  0  0  0
 34 36  1  0  0  0  0
 34 37  1  0  0  0  0
 38 39  1  0  0  0  0
 38 40  1  0  0  0  0
 38 41  1  0  0  0  0
 42 43  1  0  0  0  0
 42 49  2  0  0  0  0
 43 44  2  0  0  0  0
 43 50  1  0  0  0  0
 44 45  1  0  0  0  0
 44 46  1  0  0  0  0
 46 47  2  0  0  0  0
 46 54  1  0  0  0  0
 47 48  1  0  0  0  0
 47 49  1  0  0  0  0
 49 58  1  0  0  0  0
 50 51  1  0  0  0  0
 50 52  1  0  0  0  0
 50 53  1  0  0  0  0
 54 55  1  0  0  0  0
 54 56  1  0  0  0  0
 54 57  1  0  0  0  0
 58 59  1  0  0  0  0
 58 60  1  0  0  0  0
 58 61  1  0  0  0  0
  1 15  1  0  0  0  0
M  END
>  <DFT-ENERGY>
-2056.90475227

$$$$
