dPhSIMesCyclohexyl-1_A1
  CDK     08132411333D

 92 98  0  0  0  0  0  0  0  0999 V2000
    1.7197   -0.4712   -0.7147 Ru  0  0  0  0  0  0  0  0  0  0  0  0
    3.4975   -0.4712   -2.1039 O   0  0  0  0  0  0  0  0  0  0  0  0
    2.9299   -1.4045    0.2894 C   0  0  0  0  0  0  0  0  0  0  0  0
    2.6971   -1.6974    1.3121 H   0  0  0  0  0  0  0  0  0  0  0  0
    3.7330    0.3040   -3.3297 C   0  0  0  0  0  0  0  0  0  0  0  0
    4.1493   -0.3948   -4.0863 H   0  0  0  0  0  0  0  0  0  0  0  0
    2.3116    0.7396   -3.6569 C   0  0  0  0  0  0  0  0  0  0  0  0
    2.2502    1.2408   -4.6263 H   0  0  0  0  0  0  0  0  0  0  0  0
    1.9221    1.4334   -2.8844 H   0  0  0  0  0  0  0  0  0  0  0  0
    1.6327   -0.1373   -3.6739 H   0  0  0  0  0  0  0  0  0  0  0  0
    4.6650    1.4537   -2.9928 C   0  0  0  0  0  0  0  0  0  0  0  0
    5.6993    1.1291   -2.8385 H   0  0  0  0  0  0  0  0  0  0  0  0
    4.3411    1.9374   -2.0494 H   0  0  0  0  0  0  0  0  0  0  0  0
    4.6603    2.2254   -3.7690 H   0  0  0  0  0  0  0  0  0  0  0  0
    4.4897   -1.2696   -1.5989 C   0  0  0  0  0  0  0  0  0  0  0  0
    5.6588   -1.6183   -2.2519 C   0  0  0  0  0  0  0  0  0  0  0  0
    5.8778   -1.2680   -3.2580 H   0  0  0  0  0  0  0  0  0  0  0  0
    6.5600   -2.4494   -1.5944 C   0  0  0  0  0  0  0  0  0  0  0  0
    7.4826   -2.7371   -2.1033 H   0  0  0  0  0  0  0  0  0  0  0  0
    6.3100   -2.9210   -0.3091 C   0  0  0  0  0  0  0  0  0  0  0  0
    7.0347   -3.5658    0.1852 H   0  0  0  0  0  0  0  0  0  0  0  0
    5.1403   -2.5607    0.3325 C   0  0  0  0  0  0  0  0  0  0  0  0
    4.9471   -2.9153    1.3438 H   0  0  0  0  0  0  0  0  0  0  0  0
    4.2048   -1.7453   -0.3069 C   0  0  0  0  0  0  0  0  0  0  0  0
    2.3237    1.7368   -0.1503 Cl  0  0  0  0  0  0  0  0  0  0  0  0
    0.8936   -2.1833   -2.0788 Cl  0  0  0  0  0  0  0  0  0  0  0  0
    0.1122   -0.3753    0.4217 C   0  0  0  0  0  0  0  0  0  0  0  0
   -0.1662   -0.7242    1.7328 N   0  0  0  0  0  0  0  0  0  0  0  0
   -1.5424   -0.3023    2.1926 C   0  0  0  0  0  0  0  0  0  0  0  0
   -2.0515    0.5615    0.9881 C   0  0  0  0  0  0  0  0  0  0  0  0
   -1.0282    0.2777   -0.0738 N   0  0  0  0  0  0  0  0  0  0  0  0
   -1.4263    0.3324    3.1109 H   0  0  0  0  0  0  0  0  0  0  0  0
   -3.0554    0.2098    0.6378 H   0  0  0  0  0  0  0  0  0  0  0  0
    0.6751   -1.4066    2.6836 C   0  0  0  0  0  0  0  0  0  0  0  0
    2.0965   -2.7232    4.7091 C   0  0  0  0  0  0  0  0  0  0  0  0
    1.3265   -0.6511    3.6886 C   0  0  0  0  0  0  0  0  0  0  0  0
    0.8143   -2.8156    2.6367 C   0  0  0  0  0  0  0  0  0  0  0  0
    1.5151   -3.4574    3.6654 C   0  0  0  0  0  0  0  0  0  0  0  0
    2.0188   -1.3239    4.7029 C   0  0  0  0  0  0  0  0  0  0  0  0
    1.6085   -4.5415    3.6522 H   0  0  0  0  0  0  0  0  0  0  0  0
    2.5064   -0.7511    5.4886 H   0  0  0  0  0  0  0  0  0  0  0  0
    2.8159   -3.4386    5.8059 C   0  0  0  0  0  0  0  0  0  0  0  0
    3.1230   -2.7707    6.6213 H   0  0  0  0  0  0  0  0  0  0  0  0
    3.7265   -3.9266    5.4281 H   0  0  0  0  0  0  0  0  0  0  0  0
    2.1891   -4.2244    6.2517 H   0  0  0  0  0  0  0  0  0  0  0  0
    1.3123    0.8401    3.6466 C   0  0  0  0  0  0  0  0  0  0  0  0
    1.6926    1.2026    2.6688 H   0  0  0  0  0  0  0  0  0  0  0  0
    1.9428    1.2969    4.4194 H   0  0  0  0  0  0  0  0  0  0  0  0
    0.2993    1.2507    3.7637 H   0  0  0  0  0  0  0  0  0  0  0  0
    0.2729   -3.6048    1.4945 C   0  0  0  0  0  0  0  0  0  0  0  0
    0.6953   -4.6157    1.4339 H   0  0  0  0  0  0  0  0  0  0  0  0
    0.4888   -3.1161    0.5200 H   0  0  0  0  0  0  0  0  0  0  0  0
   -0.8202   -3.7128    1.5622 H   0  0  0  0  0  0  0  0  0  0  0  0
   -1.2494    0.6632   -1.5012 C   0  0  0  0  0  0  0  0  0  0  0  0
   -2.8805    0.6821   -3.4251 C   0  0  0  0  0  0  0  0  0  0  0  0
   -1.1652    2.5323   -3.1974 C   0  0  0  0  0  0  0  0  0  0  0  0
   -2.5778    2.1660   -3.6742 C   0  0  0  0  0  0  0  0  0  0  0  0
   -0.9550    2.1605   -1.7244 C   0  0  0  0  0  0  0  0  0  0  0  0
   -2.6872    0.3131   -1.9476 C   0  0  0  0  0  0  0  0  0  0  0  0
   -2.2261    0.0511   -4.0589 H   0  0  0  0  0  0  0  0  0  0  0  0
   -0.4115    2.0213   -3.8277 H   0  0  0  0  0  0  0  0  0  0  0  0
   -3.3233    2.7940   -3.1496 H   0  0  0  0  0  0  0  0  0  0  0  0
   -1.6054    2.7845   -1.0815 H   0  0  0  0  0  0  0  0  0  0  0  0
   -3.4288    0.8557   -1.3312 H   0  0  0  0  0  0  0  0  0  0  0  0
   -0.5352    0.0486   -2.1324 H   0  0  0  0  0  0  0  0  0  0  0  0
   -3.9169    0.4495   -3.7340 H   0  0  0  0  0  0  0  0  0  0  0  0
   -0.9901    3.6167   -3.3329 H   0  0  0  0  0  0  0  0  0  0  0  0
   -2.6850    2.3973   -4.7503 H   0  0  0  0  0  0  0  0  0  0  0  0
    0.0870    2.3881   -1.4102 H   0  0  0  0  0  0  0  0  0  0  0  0
   -2.8770   -0.7670   -1.8003 H   0  0  0  0  0  0  0  0  0  0  0  0
   -2.4456   -1.4796    2.4865 C   0  0  0  0  0  0  0  0  0  0  0  0
   -4.1630   -3.6176    3.0732 C   0  0  0  0  0  0  0  0  0  0  0  0
   -2.8519   -1.7161    3.8077 C   0  0  0  0  0  0  0  0  0  0  0  0
   -2.8955   -2.3260    1.4618 C   0  0  0  0  0  0  0  0  0  0  0  0
   -3.7522   -3.3895    1.7557 C   0  0  0  0  0  0  0  0  0  0  0  0
   -3.7092   -2.7818    4.0977 C   0  0  0  0  0  0  0  0  0  0  0  0
   -2.4978   -1.0754    4.6144 H   0  0  0  0  0  0  0  0  0  0  0  0
   -2.5649   -2.1621    0.4345 H   0  0  0  0  0  0  0  0  0  0  0  0
   -4.0984   -4.0433    0.9562 H   0  0  0  0  0  0  0  0  0  0  0  0
   -4.0213   -2.9611    5.1255 H   0  0  0  0  0  0  0  0  0  0  0  0
   -4.8317   -4.4461    3.3002 H   0  0  0  0  0  0  0  0  0  0  0  0
   -2.1297    2.0225    1.3829 C   0  0  0  0  0  0  0  0  0  0  0  0
   -2.3350    4.6991    2.1886 C   0  0  0  0  0  0  0  0  0  0  0  0
   -3.3866    2.5813    1.6582 C   0  0  0  0  0  0  0  0  0  0  0  0
   -0.9763    2.8097    1.5112 C   0  0  0  0  0  0  0  0  0  0  0  0
   -1.0815    4.1441    1.9114 C   0  0  0  0  0  0  0  0  0  0  0  0
   -3.4863    3.9161    2.0605 C   0  0  0  0  0  0  0  0  0  0  0  0
   -4.2892    1.9803    1.5616 H   0  0  0  0  0  0  0  0  0  0  0  0
    0.0080    2.3862    1.2775 H   0  0  0  0  0  0  0  0  0  0  0  0
   -0.1816    4.7522    2.0026 H   0  0  0  0  0  0  0  0  0  0  0  0
   -4.4637    4.3462    2.2730 H   0  0  0  0  0  0  0  0  0  0  0  0
   -2.4141    5.7389    2.5005 H   0  0  0  0  0  0  0  0  0  0  0  0
  1  2  1  0  0  0  0
  1  3  2  0  0  0  0
  3  4  1  0  0  0  0
  2  5  1  0  0  0  0
  5  6  1  0  0  0  0
  5  7  1  0  0  0  0
  7  8  1  0  0  0  0
  7  9  1  0  0  0  0
  7 10  1  0  0  0  0
  5 11  1  0  0  0  0
 11 12  1  0  0  0  0
 11 13  1  0  0  0  0
 11 14  1  0  0  0  0
  2 15  1  0  0  0  0
 15 24  1  0  0  0  0
 15 16  2  0  0  0  0
 16 17  1  0  0  0  0
 16 18  1  0  0  0  0
 18 19  1  0  0  0  0
 18 20  2  0  0  0  0
 20 21  1  0  0  0  0
 20 22  1  0  0  0  0
 22 24  2  0  0  0  0
 22 23  1  0  0  0  0
  3 24  1  0  0  0  0
  1 25  1  0  0  0  0
  1 26  1  0  0  0  0
 27 28  1  0  0  0  0
 27 31  1  0  0  0  0
 28 29  1  0  0  0  0
 29 32  1  0  0  0  0
 30 31  1  0  0  0  0
 29 30  1  0  0  0  0
 30 33  1  0  0  0  0
  1 27  1  0  0  0  0
 34 37  2  0  0  0  0
 34 36  1  0  0  0  0
 35 38  2  0  0  0  0
 35 39  1  0  0  0  0
 36 39  2  0  0  0  0
 37 38  1  0  0  0  0
 38 40  1  0  0  0  0
 39 41  1  0  0  0  0
 28 34  1  0  0  0  0
 42 43  1  0  0  0  0
 42 44  1  0  0  0  0
 42 45  1  0  0  0  0
 35 42  1  0  0  0  0
 46 47  1  0  0  0  0
 46 48  1  0  0  0  0
 46 49  1  0  0  0  0
 36 46  1  0  0  0  0
 50 51  1  0  0  0  0
 50 52  1  0  0  0  0
 50 53  1  0  0  0  0
 37 50  1  0  0  0  0
 54 65  1  0  0  0  0
 54 58  1  0  0  0  0
 54 59  1  0  0  0  0
 55 60  1  0  0  0  0
 55 66  1  0  0  0  0
 55 57  1  0  0  0  0
 55 59  1  0  0  0  0
 56 61  1  0  0  0  0
 56 67  1  0  0  0  0
 56 58  1  0  0  0  0
 56 57  1  0  0  0  0
 57 62  1  0  0  0  0
 57 68  1  0  0  0  0
 58 63  1  0  0  0  0
 58 69  1  0  0  0  0
 59 64  1  0  0  0  0
 59 70  1  0  0  0  0
 31 54  1  0  0  0  0
 71 74  2  0  0  0  0
 71 73  1  0  0  0  0
 72 75  2  0  0  0  0
 72 76  1  0  0  0  0
 72 81  1  0  0  0  0
 73 76  2  0  0  0  0
 73 77  1  0  0  0  0
 74 75  1  0  0  0  0
 74 78  1  0  0  0  0
 75 79  1  0  0  0  0
 76 80  1  0  0  0  0
 29 71  1  0  0  0  0
 82 85  2  0  0  0  0
 82 84  1  0  0  0  0
 83 86  2  0  0  0  0
 83 87  1  0  0  0  0
 83 92  1  0  0  0  0
 84 87  2  0  0  0  0
 84 88  1  0  0  0  0
 85 86  1  0  0  0  0
 85 89  1  0  0  0  0
 86 90  1  0  0  0  0
 87 91  1  0  0  0  0
 30 82  1  0  0  0  0
M  END
> <FrozenCore-PM6_ENERGY>
116.132

> <RMSD_CONF_CG-CS>
0.428355

> <RMSD_CONF_GO-CS>
0.000000

> <UID>


> <DESCRIPTOR_DEFINITION_1>
desc1=( echo "1 * ( e( $hartree_to_kcalmol * ( ( $freeEnergyZ - $freeEnergyD ) - ( $freeEnergyX + 2*$G_Ethene - $freeEnergyD - 2*$G_Propene ) - $DDG_reference_HGII ) / $kT ) ) " | bc -l )

> <DESCRIPTOR_DEFINITION_2>
desc1=( echo "1 * ( e( $hartree_to_kcalmol * ( ( $freeEnergyZ - $freeEnergyD ) - ( $freeEnergyX + 2*$G_Ethene - $freeEnergyD - 2*$G_Propene ) - $DDG_reference_HGII ) / $kT ) ) " | bc -l )

> <DESCRIPTOR_DEFINITION_3>
desc1=( echo "1 * ( e( $hartree_to_kcalmol * ( ( $freeEnergyZ - $freeEnergyD ) - ( $freeEnergyX + 2*$G_Ethene - $freeEnergyD - 2*$G_Propene ) - $DDG_reference_HGII ) / $kT ) ) " | bc -l )

> <WEIGHT_DEFINITION_1>
w1=$( echo "1 / ( 1 + e( $hartree_to_kcalmol * ( ( ( $freeEnergyX + 2*$G_Ethene - $freeEnergyD - 2*$G_Propene ) ) - ( $DG_referenceProductionBarrier + $magnitude4 ) ) / $kT ) )" | bc -l )

> <WEIGHT_DEFINITION_2>
w1=$( echo "1 / ( 1 + e( $hartree_to_kcalmol * ( ( ( $freeEnergyX + 2*$G_Ethene - $freeEnergyD - 2*$G_Propene ) ) - ( $DG_referenceProductionBarrier + $magnitude4 ) ) / $kT ) )" | bc -l )

> <WEIGHT_DEFINITION_3>
w1=$( echo "1 / ( 1 + e( $hartree_to_kcalmol * ( ( ( $freeEnergyX + 2*$G_Ethene - $freeEnergyD - 2*$G_Propene ) ) - ( $DG_referenceProductionBarrier + $magnitude4 ) ) / $kT ) )" | bc -l )

> <WEIGHT_DEFINITION_4>
w1=$( echo "1 / ( 1 + e( $hartree_to_kcalmol * ( ( ( $freeEnergyX + 2*$G_Ethene - $freeEnergyD - 2*$G_Propene ) ) - ( $DG_referenceProductionBarrier + $magnitude4 ) ) / $kT ) )" | bc -l )

> <CALCULATION_OF_OVERALL_FITNESS>
fitness=$( echo "( $desc1 + $desc2 + $desc3 ) * ( $w1 * $w2 * $w3 * $w4 )" | bc -l )

> <freeEnergyA>
-2749.53172995

> <freeEnergyF>
-2749.5134624

> <freeEnergyE>
-2749.53172995

> <freeEnergyC>
-2404.27183768

> <freeEnergyL>
-1271.66024344

> <freeEnergyX>
-2482.80576793

> <freeEnergyZ>
-2404.26217659

> <freeEnergyD>
-2404.29783948

> <G_Propene>
-117.738020895

> <G_Ethene>
-78.4716324751

> <G_HoveydaProd>
-502.204109499

> <G_SIMes>
-924.27249048

> <G_HG_RuCl2_SIMes>
-2402.13728523

> <DG_referenceProductionBarrier>
0.01468968

> <DG_referencePrecursorStabilityHII>
-0.0052201621

> <DG_referencePrecursorStabilityHI>
0.0117775312

> <DDG_referencePrecursorStability>
.0169976933

> <DG_referenceSynt>
0.0226072217

> <hartree_to_kcalmol>
627.49467516

> <boltzmann_constant>
0.0000000000000000000000138066

> <avogadro_number>
602214000000000000000000

> <jmol_to_kcalmol>
0.00023901

> <temp>
313.15

> <kT>
.6223089948281258706000000000

> <magnitude1>
1.43290809

> <magnitude2>
2.86581618

> <magnitude3>
4.29872427

> <magnitude4>
5.73163236

> <DFT_IDENTIFIER>
1723762155209

> <DFT_MACHINE>
158.39.114.73

> <XTB_IDENTIFIER>
NREC

> <XTB_MACHINE>
NREC

> <DESCRIPTOR_1>
.00001000998211610346

> <DESCRIPTOR_2>
6.786041290016755032

> <DESCRIPTOR_3>
0.0000000001

> <WEIGHT_1>
.99865743361548989328

> <WEIGHT_2>
.99999973364990538714

> <WEIGHT_3>
.99999999999998522286

> <WEIGHT_4>
.99999899912916553310

> <FITNESS>
6.77693198786057104439

$$$$
