
  CDK     08142408413D

 84 89  0  0  0  0  0  0  0  0999 V2000
    0.8744    4.3906   -2.4993 C   0  0  0  0  0  0  0  0  0  0  0  0
    1.8844    4.1171   -2.8533 H   0  0  0  0  0  0  0  0  0  0  0  0
    0.6282    5.4210   -2.8408 H   0  0  0  0  0  0  0  0  0  0  0  0
    0.1418    3.7143   -2.9848 H   0  0  0  0  0  0  0  0  0  0  0  0
    0.7663    4.3385   -0.9925 C   0  0  0  0  0  0  0  0  0  0  0  0
   -0.2365    4.5530   -0.5775 H   0  0  0  0  0  0  0  0  0  0  0  0
    1.8463    4.6543   -0.1277 C   0  0  0  0  0  0  0  0  0  0  0  0
    2.8481    4.7071   -0.5898 H   0  0  0  0  0  0  0  0  0  0  0  0
    1.6060    5.4630    1.1273 C   0  0  0  0  0  0  0  0  0  0  0  0
    2.4583    5.4284    1.8316 H   0  0  0  0  0  0  0  0  0  0  0  0
    1.4553    6.5250    0.8359 H   0  0  0  0  0  0  0  0  0  0  0  0
    0.6895    5.1162    1.6443 H   0  0  0  0  0  0  0  0  0  0  0  0
    2.4432    2.7645    1.0800 C   0  0  0  0  0  0  0  0  0  0  0  0
    2.1201    3.0137    2.1144 H   0  0  0  0  0  0  0  0  0  0  0  0
    3.5372    2.7513    0.8771 H   0  0  0  0  0  0  0  0  0  0  0  0
    1.2341    2.3295   -0.2225 Ru  0  0  0  0  0  0  0  0  0  0  0  0
   -0.6765    2.6676    1.2057 Cl  0  0  0  0  0  0  0  0  0  0  0  0
    2.9998    1.9814   -1.8140 Cl  0  0  0  0  0  0  0  0  0  0  0  0
    0.8740    0.3773   -0.1157 C   0  0  0  0  0  0  0  0  0  0  0  0
    1.3328   -0.5398    0.7696 N   0  0  0  0  0  0  0  0  0  0  0  0
    0.8370   -1.9098    0.4436 C   0  0  0  0  0  0  0  0  0  0  0  0
   -0.2883   -1.6094   -0.5985 C   0  0  0  0  0  0  0  0  0  0  0  0
    0.0041   -0.2148   -0.9646 N   0  0  0  0  0  0  0  0  0  0  0  0
    0.3939   -2.3538    1.3566 H   0  0  0  0  0  0  0  0  0  0  0  0
   -0.1686   -2.2763   -1.4758 H   0  0  0  0  0  0  0  0  0  0  0  0
    2.1703   -0.2785    1.9062 C   0  0  0  0  0  0  0  0  0  0  0  0
    3.7668    0.2467    4.1740 C   0  0  0  0  0  0  0  0  0  0  0  0
    1.5508   -0.1030    3.1708 C   0  0  0  0  0  0  0  0  0  0  0  0
    3.5766   -0.2124    1.7601 C   0  0  0  0  0  0  0  0  0  0  0  0
    4.3444    0.0637    2.9094 C   0  0  0  0  0  0  0  0  0  0  0  0
    2.3674    0.1519    4.2832 C   0  0  0  0  0  0  0  0  0  0  0  0
    5.4383    0.1314    2.8018 H   0  0  0  0  0  0  0  0  0  0  0  0
    1.8886    0.2939    5.2650 H   0  0  0  0  0  0  0  0  0  0  0  0
    4.6127    0.5360    5.3886 C   0  0  0  0  0  0  0  0  0  0  0  0
    5.6868    0.6041    5.1312 H   0  0  0  0  0  0  0  0  0  0  0  0
    4.4961   -0.2566    6.1569 H   0  0  0  0  0  0  0  0  0  0  0  0
    4.3145    1.4915    5.8677 H   0  0  0  0  0  0  0  0  0  0  0  0
    0.0553   -0.1353    3.3215 C   0  0  0  0  0  0  0  0  0  0  0  0
   -0.3995    0.7204    2.7776 H   0  0  0  0  0  0  0  0  0  0  0  0
   -0.2318   -0.0656    4.3875 H   0  0  0  0  0  0  0  0  0  0  0  0
   -0.3976   -1.0584    2.9068 H   0  0  0  0  0  0  0  0  0  0  0  0
    4.2729   -0.4354    0.4455 C   0  0  0  0  0  0  0  0  0  0  0  0
    4.4313   -1.5185    0.2655 H   0  0  0  0  0  0  0  0  0  0  0  0
    5.2675    0.0504    0.4526 H   0  0  0  0  0  0  0  0  0  0  0  0
    3.7053   -0.0228   -0.4093 H   0  0  0  0  0  0  0  0  0  0  0  0
   -0.4510    0.4653   -2.1810 C   0  0  0  0  0  0  0  0  0  0  0  0
   -0.0937    0.7556   -4.6730 C   0  0  0  0  0  0  0  0  0  0  0  0
   -2.3682    1.1775   -3.6543 C   0  0  0  0  0  0  0  0  0  0  0  0
   -1.6096    0.6834   -4.8925 C   0  0  0  0  0  0  0  0  0  0  0  0
   -1.9675    0.4005   -2.3926 C   0  0  0  0  0  0  0  0  0  0  0  0
    0.3330   -0.0103   -3.4146 C   0  0  0  0  0  0  0  0  0  0  0  0
    0.2160    1.8189   -4.5632 H   0  0  0  0  0  0  0  0  0  0  0  0
   -2.1501    2.2586   -3.4985 H   0  0  0  0  0  0  0  0  0  0  0  0
   -1.9015   -0.3706   -5.1033 H   0  0  0  0  0  0  0  0  0  0  0  0
   -2.2790   -0.6626   -2.4928 H   0  0  0  0  0  0  0  0  0  0  0  0
    0.1465   -1.0987   -3.5592 H   0  0  0  0  0  0  0  0  0  0  0  0
   -0.1881    1.5412   -2.0188 H   0  0  0  0  0  0  0  0  0  0  0  0
    0.4524    0.3646   -5.5558 H   0  0  0  0  0  0  0  0  0  0  0  0
   -3.4640    1.1007   -3.8076 H   0  0  0  0  0  0  0  0  0  0  0  0
   -1.9006    1.2749   -5.7853 H   0  0  0  0  0  0  0  0  0  0  0  0
   -2.4848    0.8014   -1.4994 H   0  0  0  0  0  0  0  0  0  0  0  0
    1.4146    0.1349   -3.2165 H   0  0  0  0  0  0  0  0  0  0  0  0
    1.9558   -2.8026   -0.0485 C   0  0  0  0  0  0  0  0  0  0  0  0
    4.1261   -4.3936   -0.8866 C   0  0  0  0  0  0  0  0  0  0  0  0
    2.5372   -3.7340    0.8289 C   0  0  0  0  0  0  0  0  0  0  0  0
    2.4715   -2.6742   -1.3530 C   0  0  0  0  0  0  0  0  0  0  0  0
    3.5466   -3.4683   -1.7706 C   0  0  0  0  0  0  0  0  0  0  0  0
    3.6203   -4.5242    0.4153 C   0  0  0  0  0  0  0  0  0  0  0  0
    2.1417   -3.8301    1.8515 H   0  0  0  0  0  0  0  0  0  0  0  0
    2.0511   -1.9257   -2.0396 H   0  0  0  0  0  0  0  0  0  0  0  0
    3.9444   -3.3549   -2.7893 H   0  0  0  0  0  0  0  0  0  0  0  0
    4.0699   -5.2455    1.1130 H   0  0  0  0  0  0  0  0  0  0  0  0
    4.9742   -5.0122   -1.2139 H   0  0  0  0  0  0  0  0  0  0  0  0
   -1.6767   -1.7980   -0.0105 C   0  0  0  0  0  0  0  0  0  0  0  0
   -4.1917   -2.2412    1.1773 C   0  0  0  0  0  0  0  0  0  0  0  0
   -2.3356   -3.0292   -0.1778 C   0  0  0  0  0  0  0  0  0  0  0  0
   -2.2855   -0.7850    0.7537 C   0  0  0  0  0  0  0  0  0  0  0  0
   -3.5378   -1.0100    1.3431 C   0  0  0  0  0  0  0  0  0  0  0  0
   -3.5880   -3.2519    0.4134 C   0  0  0  0  0  0  0  0  0  0  0  0
   -1.8624   -3.8208   -0.7802 H   0  0  0  0  0  0  0  0  0  0  0  0
   -1.7885    0.1906    0.8739 H   0  0  0  0  0  0  0  0  0  0  0  0
   -4.0063   -0.2099    1.9346 H   0  0  0  0  0  0  0  0  0  0  0  0
   -4.0969   -4.2165    0.2711 H   0  0  0  0  0  0  0  0  0  0  0  0
   -5.1755   -2.4117    1.6382 H   0  0  0  0  0  0  0  0  0  0  0  0
  1  2  1  0  0  0  0
  1  5  1  0  0  0  0
  1  3  1  0  0  0  0
  1  4  1  0  0  0  0
  5  6  1  0  0  0  0
  5 16  1  0  0  0  0
  5  7  1  0  0  0  0
  7  9  1  0  0  0  0
  7  8  1  0  0  0  0
  9 10  1  0  0  0  0
  9 11  1  0  0  0  0
  9 12  1  0  0  0  0
 13 14  1  0  0  0  0
 13 15  1  0  0  0  0
  7 13  1  0  0  0  0
 13 16  1  0  0  0  0
 16 17  1  0  0  0  0
 16 18  1  0  0  0  0
 19 20  1  0  0  0  0
 19 23  1  0  0  0  0
 20 21  1  0  0  0  0
 21 24  1  0  0  0  0
 22 23  1  0  0  0  0
 21 22  1  0  0  0  0
 22 25  1  0  0  0  0
 26 29  2  0  0  0  0
 26 28  1  0  0  0  0
 27 30  2  0  0  0  0
 27 31  1  0  0  0  0
 28 31  2  0  0  0  0
 29 30  1  0  0  0  0
 30 32  1  0  0  0  0
 31 33  1  0  0  0  0
 20 26  1  0  0  0  0
 34 35  1  0  0  0  0
 34 36  1  0  0  0  0
 34 37  1  0  0  0  0
 27 34  1  0  0  0  0
 38 39  1  0  0  0  0
 38 40  1  0  0  0  0
 38 41  1  0  0  0  0
 28 38  1  0  0  0  0
 42 43  1  0  0  0  0
 42 44  1  0  0  0  0
 42 45  1  0  0  0  0
 29 42  1  0  0  0  0
 46 57  1  0  0  0  0
 46 50  1  0  0  0  0
 46 51  1  0  0  0  0
 47 52  1  0  0  0  0
 47 58  1  0  0  0  0
 47 49  1  0  0  0  0
 47 51  1  0  0  0  0
 48 53  1  0  0  0  0
 48 59  1  0  0  0  0
 48 50  1  0  0  0  0
 48 49  1  0  0  0  0
 49 54  1  0  0  0  0
 49 60  1  0  0  0  0
 50 55  1  0  0  0  0
 50 61  1  0  0  0  0
 51 56  1  0  0  0  0
 51 62  1  0  0  0  0
 23 46  1  0  0  0  0
 63 66  2  0  0  0  0
 63 65  1  0  0  0  0
 64 67  2  0  0  0  0
 64 68  1  0  0  0  0
 64 73  1  0  0  0  0
 65 68  2  0  0  0  0
 65 69  1  0  0  0  0
 66 67  1  0  0  0  0
 66 70  1  0  0  0  0
 67 71  1  0  0  0  0
 68 72  1  0  0  0  0
 21 63  1  0  0  0  0
 74 77  2  0  0  0  0
 74 76  1  0  0  0  0
 75 78  2  0  0  0  0
 75 79  1  0  0  0  0
 75 84  1  0  0  0  0
 76 79  2  0  0  0  0
 76 80  1  0  0  0  0
 77 78  1  0  0  0  0
 77 81  1  0  0  0  0
 78 82  1  0  0  0  0
 79 83  1  0  0  0  0
 22 74  1  0  0  0  0
 16 19  1  0  0  0  0
M  END
>  <DFT-ENERGY>
-2482.80576824

$$$$
