
  CDK     08152423323D

 78 83  0  0  0  0  0  0  0  0999 V2000
    2.2487   -1.2241   -0.0737 Ru  0  0  0  0  0  0  0  0  0  0  0  0
    3.7769   -1.0490   -1.2789 C   0  0  0  0  0  0  0  0  0  0  0  0
    3.6002   -1.4013   -2.3112 H   0  0  0  0  0  0  0  0  0  0  0  0
    4.2707   -2.1916   -0.3005 C   0  0  0  0  0  0  0  0  0  0  0  0
    4.4279   -3.0931   -0.9197 H   0  0  0  0  0  0  0  0  0  0  0  0
    3.2831   -2.6063    0.8628 C   0  0  0  0  0  0  0  0  0  0  0  0
    3.6560   -2.3277    1.8647 H   0  0  0  0  0  0  0  0  0  0  0  0
    2.8995   -3.6369    0.7553 H   0  0  0  0  0  0  0  0  0  0  0  0
    5.1843   -1.8086    0.1894 H   0  0  0  0  0  0  0  0  0  0  0  0
    4.3513   -0.1104   -1.1774 H   0  0  0  0  0  0  0  0  0  0  0  0
    1.3081   -2.9450   -1.4452 Cl  0  0  0  0  0  0  0  0  0  0  0  0
    3.1900    0.3701    1.4442 Cl  0  0  0  0  0  0  0  0  0  0  0  0
    0.4697   -0.3686    0.0828 C   0  0  0  0  0  0  0  0  0  0  0  0
   -0.1109    0.3960   -0.8675 N   0  0  0  0  0  0  0  0  0  0  0  0
   -1.4161    0.9398   -0.3853 C   0  0  0  0  0  0  0  0  0  0  0  0
   -1.7080    0.0041    0.8285 C   0  0  0  0  0  0  0  0  0  0  0  0
   -0.3601   -0.5165    1.1357 N   0  0  0  0  0  0  0  0  0  0  0  0
   -2.1778    0.7881   -1.1744 H   0  0  0  0  0  0  0  0  0  0  0  0
   -2.0841    0.6080    1.6760 H   0  0  0  0  0  0  0  0  0  0  0  0
    0.5055    0.7645   -2.1139 C   0  0  0  0  0  0  0  0  0  0  0  0
    1.7173    1.4037   -4.5806 C   0  0  0  0  0  0  0  0  0  0  0  0
    0.0719    0.1082   -3.2954 C   0  0  0  0  0  0  0  0  0  0  0  0
    1.5055    1.7664   -2.1522 C   0  0  0  0  0  0  0  0  0  0  0  0
    2.1043    2.0469   -3.3968 C   0  0  0  0  0  0  0  0  0  0  0  0
    0.6865    0.4489   -4.5091 C   0  0  0  0  0  0  0  0  0  0  0  0
    2.8951    2.8124   -3.4332 H   0  0  0  0  0  0  0  0  0  0  0  0
    0.3577   -0.0644   -5.4263 H   0  0  0  0  0  0  0  0  0  0  0  0
    2.3834    1.7155   -5.8969 C   0  0  0  0  0  0  0  0  0  0  0  0
    1.6364    1.9608   -6.6794 H   0  0  0  0  0  0  0  0  0  0  0  0
    2.9603    0.8422   -6.2673 H   0  0  0  0  0  0  0  0  0  0  0  0
    3.0825    2.5688   -5.8090 H   0  0  0  0  0  0  0  0  0  0  0  0
   -0.9803   -0.9654   -3.2625 C   0  0  0  0  0  0  0  0  0  0  0  0
   -0.5695   -1.8682   -2.7637 H   0  0  0  0  0  0  0  0  0  0  0  0
   -1.2881   -1.2416   -4.2885 H   0  0  0  0  0  0  0  0  0  0  0  0
   -1.8877   -0.6665   -2.7014 H   0  0  0  0  0  0  0  0  0  0  0  0
    1.9165    2.5734   -0.9505 C   0  0  0  0  0  0  0  0  0  0  0  0
    2.9564    2.9334   -1.0691 H   0  0  0  0  0  0  0  0  0  0  0  0
    1.8755    2.0024   -0.0065 H   0  0  0  0  0  0  0  0  0  0  0  0
    1.2624    3.4640   -0.8457 H   0  0  0  0  0  0  0  0  0  0  0  0
    0.0194   -1.2646    2.3451 C   0  0  0  0  0  0  0  0  0  0  0  0
   -0.1224   -1.3992    4.8518 C   0  0  0  0  0  0  0  0  0  0  0  0
    0.3506   -3.4792    3.4847 C   0  0  0  0  0  0  0  0  0  0  0  0
   -0.2915   -2.9220    4.7623 C   0  0  0  0  0  0  0  0  0  0  0  0
   -0.2046   -2.7825    2.2361 C   0  0  0  0  0  0  0  0  0  0  0  0
   -0.6584   -0.6955    3.5960 C   0  0  0  0  0  0  0  0  0  0  0  0
    0.9570   -1.1546    4.9657 H   0  0  0  0  0  0  0  0  0  0  0  0
    1.4528   -3.3256    3.5287 H   0  0  0  0  0  0  0  0  0  0  0  0
   -1.3772   -3.1700    4.7611 H   0  0  0  0  0  0  0  0  0  0  0  0
   -1.2911   -2.9911    2.1411 H   0  0  0  0  0  0  0  0  0  0  0  0
   -1.7584   -0.8521    3.5267 H   0  0  0  0  0  0  0  0  0  0  0  0
    1.1131   -1.0763    2.4422 H   0  0  0  0  0  0  0  0  0  0  0  0
   -0.6331   -1.0016    5.7528 H   0  0  0  0  0  0  0  0  0  0  0  0
    0.1886   -4.5741    3.4114 H   0  0  0  0  0  0  0  0  0  0  0  0
    0.1420   -3.4081    5.6608 H   0  0  0  0  0  0  0  0  0  0  0  0
    0.2808   -3.1642    1.3141 H   0  0  0  0  0  0  0  0  0  0  0  0
   -0.4806    0.3984    3.6604 H   0  0  0  0  0  0  0  0  0  0  0  0
   -1.3126    2.4145   -0.0625 C   0  0  0  0  0  0  0  0  0  0  0  0
   -1.0131    5.1734    0.4311 C   0  0  0  0  0  0  0  0  0  0  0  0
   -1.7503    3.3595   -1.0069 C   0  0  0  0  0  0  0  0  0  0  0  0
   -0.7204    2.8643    1.1344 C   0  0  0  0  0  0  0  0  0  0  0  0
   -0.5766    4.2352    1.3810 C   0  0  0  0  0  0  0  0  0  0  0  0
   -1.5989    4.7331   -0.7651 C   0  0  0  0  0  0  0  0  0  0  0  0
   -2.2048    3.0112   -1.9468 H   0  0  0  0  0  0  0  0  0  0  0  0
   -0.3346    2.1379    1.8643 H   0  0  0  0  0  0  0  0  0  0  0  0
   -0.1074    4.5741    2.3158 H   0  0  0  0  0  0  0  0  0  0  0  0
   -1.9412    5.4619   -1.5140 H   0  0  0  0  0  0  0  0  0  0  0  0
   -0.8945    6.2494    0.6242 H   0  0  0  0  0  0  0  0  0  0  0  0
   -2.7137   -1.0853    0.5030 C   0  0  0  0  0  0  0  0  0  0  0  0
   -4.6404   -3.0222   -0.1836 C   0  0  0  0  0  0  0  0  0  0  0  0
   -4.0492   -0.9399    0.9185 C   0  0  0  0  0  0  0  0  0  0  0  0
   -2.3447   -2.2133   -0.2553 C   0  0  0  0  0  0  0  0  0  0  0  0
   -3.3067   -3.1738   -0.5965 C   0  0  0  0  0  0  0  0  0  0  0  0
   -5.0105   -1.9033    0.5774 C   0  0  0  0  0  0  0  0  0  0  0  0
   -4.3378   -0.0622    1.5179 H   0  0  0  0  0  0  0  0  0  0  0  0
   -1.2989   -2.3562   -0.5675 H   0  0  0  0  0  0  0  0  0  0  0  0
   -3.0057   -4.0517   -1.1863 H   0  0  0  0  0  0  0  0  0  0  0  0
   -6.0507   -1.7818    0.9132 H   0  0  0  0  0  0  0  0  0  0  0  0
   -5.3908   -3.7810   -0.4493 H   0  0  0  0  0  0  0  0  0  0  0  0
  2  4  1  0  0  0  0
  2  1  1  0  0  0  0
  2  3  1  0  0  0  0
  4  6  1  0  0  0  0
  4  5  1  0  0  0  0
  6  1  1  0  0  0  0
  6  8  1  0  0  0  0
  7  6  1  0  0  0  0
  9  4  1  0  0  0  0
 10  2  1  0  0  0  0
  1 11  1  0  0  0  0
  1 12  1  0  0  0  0
 13 14  1  0  0  0  0
 13 17  1  0  0  0  0
 14 15  1  0  0  0  0
 15 18  1  0  0  0  0
 16 17  1  0  0  0  0
 15 16  1  0  0  0  0
 16 19  1  0  0  0  0
 20 23  2  0  0  0  0
 20 22  1  0  0  0  0
 21 24  2  0  0  0  0
 21 25  1  0  0  0  0
 22 25  2  0  0  0  0
 23 24  1  0  0  0  0
 24 26  1  0  0  0  0
 25 27  1  0  0  0  0
 14 20  1  0  0  0  0
 28 29  1  0  0  0  0
 28 30  1  0  0  0  0
 28 31  1  0  0  0  0
 21 28  1  0  0  0  0
 32 33  1  0  0  0  0
 32 34  1  0  0  0  0
 32 35  1  0  0  0  0
 22 32  1  0  0  0  0
 36 37  1  0  0  0  0
 36 38  1  0  0  0  0
 36 39  1  0  0  0  0
 23 36  1  0  0  0  0
 40 51  1  0  0  0  0
 40 44  1  0  0  0  0
 40 45  1  0  0  0  0
 41 46  1  0  0  0  0
 41 52  1  0  0  0  0
 41 43  1  0  0  0  0
 41 45  1  0  0  0  0
 42 47  1  0  0  0  0
 42 53  1  0  0  0  0
 42 44  1  0  0  0  0
 42 43  1  0  0  0  0
 43 48  1  0  0  0  0
 43 54  1  0  0  0  0
 44 49  1  0  0  0  0
 44 55  1  0  0  0  0
 45 50  1  0  0  0  0
 45 56  1  0  0  0  0
 17 40  1  0  0  0  0
 57 60  2  0  0  0  0
 57 59  1  0  0  0  0
 58 61  2  0  0  0  0
 58 62  1  0  0  0  0
 58 67  1  0  0  0  0
 59 62  2  0  0  0  0
 59 63  1  0  0  0  0
 60 61  1  0  0  0  0
 60 64  1  0  0  0  0
 61 65  1  0  0  0  0
 62 66  1  0  0  0  0
 15 57  1  0  0  0  0
 68 71  2  0  0  0  0
 68 70  1  0  0  0  0
 69 72  2  0  0  0  0
 69 73  1  0  0  0  0
 69 78  1  0  0  0  0
 70 73  2  0  0  0  0
 70 74  1  0  0  0  0
 71 72  1  0  0  0  0
 71 75  1  0  0  0  0
 72 76  1  0  0  0  0
 73 77  1  0  0  0  0
 16 68  1  0  0  0  0
  1 13  1  0  0  0  0
M  END
>  <DFT-ENERGY>
-2404.29783957

$$$$
