
  CDK     08132413553D

 55 59  0  0  0  0  0  0  0  0999 V2000
    1.9791    0.7402   -2.6295 H   0  0  0  0  0  0  0  0  0  0  0  0
    3.1085    1.2269   -2.5886 C   0  0  0  0  0  0  0  0  0  0  0  0
    3.0956    1.2814   -3.7006 H   0  0  0  0  0  0  0  0  0  0  0  0
    2.9354    2.4040   -1.6901 C   0  0  0  0  0  0  0  0  0  0  0  0
    3.8093    2.7095   -1.0901 H   0  0  0  0  0  0  0  0  0  0  0  0
    2.3184    3.2337   -2.0718 H   0  0  0  0  0  0  0  0  0  0  0  0
    1.9267    0.7865   -0.8570 Ru  0  0  0  0  0  0  0  0  0  0  0  0
    3.7543    0.1393   -1.8539 C   0  0  0  0  0  0  0  0  0  0  0  0
    4.5977    0.3777   -1.1945 H   0  0  0  0  0  0  0  0  0  0  0  0
    3.7524   -0.8713   -2.2961 H   0  0  0  0  0  0  0  0  0  0  0  0
    3.4399    0.5239    1.0608 Cl  0  0  0  0  0  0  0  0  0  0  0  0
   -0.1168    1.6013   -1.8210 Cl  0  0  0  0  0  0  0  0  0  0  0  0
    0.7976    1.1695    0.7977 C   0  0  0  0  0  0  0  0  0  0  0  0
    0.7990    2.2364    1.6074 N   0  0  0  0  0  0  0  0  0  0  0  0
   -0.0290    1.9922    2.8336 C   0  0  0  0  0  0  0  0  0  0  0  0
   -1.0464    0.9320    2.2489 C   0  0  0  0  0  0  0  0  0  0  0  0
   -0.1606    0.2899    1.2172 N   0  0  0  0  0  0  0  0  0  0  0  0
    1.5642    3.4198    1.3635 C   0  0  0  0  0  0  0  0  0  0  0  0
    2.9774    5.7872    0.8729 C   0  0  0  0  0  0  0  0  0  0  0  0
    1.1129    4.3092    0.3741 C   0  0  0  0  0  0  0  0  0  0  0  0
    2.7299    3.6968    2.0957 C   0  0  0  0  0  0  0  0  0  0  0  0
    3.4284    4.8886    1.8517 C   0  0  0  0  0  0  0  0  0  0  0  0
    1.8245    5.4911    0.1285 C   0  0  0  0  0  0  0  0  0  0  0  0
    4.3446    5.1050    2.4196 H   0  0  0  0  0  0  0  0  0  0  0  0
    1.4760    6.1830   -0.6517 H   0  0  0  0  0  0  0  0  0  0  0  0
   -0.4138   -0.8722    0.4567 C   0  0  0  0  0  0  0  0  0  0  0  0
   -0.8223   -3.0793   -1.2712 C   0  0  0  0  0  0  0  0  0  0  0  0
   -1.6585   -1.5293    0.4221 C   0  0  0  0  0  0  0  0  0  0  0  0
    0.6344   -1.3517   -0.3681 C   0  0  0  0  0  0  0  0  0  0  0  0
    0.4237   -2.4393   -1.2257 C   0  0  0  0  0  0  0  0  0  0  0  0
   -1.8511   -2.6240   -0.4336 C   0  0  0  0  0  0  0  0  0  0  0  0
   -2.4982   -1.1805    1.0317 H   0  0  0  0  0  0  0  0  0  0  0  0
    1.7037   -1.0431   -0.1747 H   0  0  0  0  0  0  0  0  0  0  0  0
    1.2579   -2.7915   -1.8490 H   0  0  0  0  0  0  0  0  0  0  0  0
   -2.8339   -3.1167   -0.4506 H   0  0  0  0  0  0  0  0  0  0  0  0
   -0.9880   -3.9321   -1.9439 H   0  0  0  0  0  0  0  0  0  0  0  0
    3.1072    2.9596    2.8137 H   0  0  0  0  0  0  0  0  0  0  0  0
    0.2264    4.0393   -0.2163 H   0  0  0  0  0  0  0  0  0  0  0  0
    3.5331    6.7167    0.6816 H   0  0  0  0  0  0  0  0  0  0  0  0
   -0.6820    3.2780    3.3319 C   0  0  0  0  0  0  0  0  0  0  0  0
   -1.3870    3.0506    4.1562 H   0  0  0  0  0  0  0  0  0  0  0  0
   -1.2277    3.8115    2.5334 H   0  0  0  0  0  0  0  0  0  0  0  0
    0.0919    3.9630    3.7282 H   0  0  0  0  0  0  0  0  0  0  0  0
    0.8873    1.3985    3.9160 C   0  0  0  0  0  0  0  0  0  0  0  0
    0.3137    1.1308    4.8238 H   0  0  0  0  0  0  0  0  0  0  0  0
    1.6420    2.1512    4.2119 H   0  0  0  0  0  0  0  0  0  0  0  0
    1.4244    0.5063    3.5403 H   0  0  0  0  0  0  0  0  0  0  0  0
   -2.2169    1.6133    1.5198 C   0  0  0  0  0  0  0  0  0  0  0  0
   -2.8795    2.1296    2.2403 H   0  0  0  0  0  0  0  0  0  0  0  0
   -2.8223    0.8680    0.9734 H   0  0  0  0  0  0  0  0  0  0  0  0
   -1.8463    2.3426    0.7740 H   0  0  0  0  0  0  0  0  0  0  0  0
   -1.5371   -0.0443    3.3185 C   0  0  0  0  0  0  0  0  0  0  0  0
   -1.9216    0.5271    4.1869 H   0  0  0  0  0  0  0  0  0  0  0  0
   -0.7306   -0.7137    3.6680 H   0  0  0  0  0  0  0  0  0  0  0  0
   -2.3688   -0.6720    2.9521 H   0  0  0  0  0  0  0  0  0  0  0  0
  1  2  1  0  0  0  0
  1  7  1  0  0  0  0
  2  3  1  0  0  0  0
  2  4  1  0  0  0  0
  4  5  1  0  0  0  0
  4  6  1  0  0  0  0
  7  8  1  0  0  0  0
  4  7  1  0  0  0  0
  2  8  1  0  0  0  0
  8  9  1  0  0  0  0
  8 10  1  0  0  0  0
  7 11  1  0  0  0  0
  7 12  1  0  0  0  0
 13 14  1  0  0  0  0
 13 17  1  0  0  0  0
 14 15  1  0  0  0  0
 16 17  1  0  0  0  0
 18 21  2  0  0  0  0
 21 22  1  0  0  0  0
 19 22  2  0  0  0  0
 19 23  1  0  0  0  0
 20 23  2  0  0  0  0
 18 20  1  0  0  0  0
 22 24  1  0  0  0  0
 23 25  1  0  0  0  0
 14 18  1  0  0  0  0
 26 29  2  0  0  0  0
 29 30  1  0  0  0  0
 27 30  2  0  0  0  0
 27 31  1  0  0  0  0
 28 31  2  0  0  0  0
 26 28  1  0  0  0  0
 30 34  1  0  0  0  0
 31 35  1  0  0  0  0
 27 36  1  0  0  0  0
 28 32  1  0  0  0  0
 29 33  1  0  0  0  0
 17 26  1  0  0  0  0
 21 37  1  0  0  0  0
 20 38  1  0  0  0  0
 19 39  1  0  0  0  0
 15 16  1  0  0  0  0
 40 41  1  0  0  0  0
 40 42  1  0  0  0  0
 40 43  1  0  0  0  0
 15 40  1  0  0  0  0
 44 45  1  0  0  0  0
 44 46  1  0  0  0  0
 44 47  1  0  0  0  0
 15 44  1  0  0  0  0
 48 49  1  0  0  0  0
 48 50  1  0  0  0  0
 48 51  1  0  0  0  0
 16 48  1  0  0  0  0
 52 53  1  0  0  0  0
 52 54  1  0  0  0  0
 52 55  1  0  0  0  0
 16 52  1  0  0  0  0
  7 13  1  0  0  0  0
M  END
>  <DFT-ENERGY>
-1978.33235318

$$$$
