tetraMeSIPh-2_A2
  CDK     08122416223D

 69 73  0  0  0  0  0  0  0  0999 V2000
    0.8624   -0.1251   -0.6827 Ru  0  0  0  0  0  0  0  0  0  0  0  0
    2.6402   -0.1251   -2.0719 O   0  0  0  0  0  0  0  0  0  0  0  0
    2.0726    0.8082    0.3214 C   0  0  0  0  0  0  0  0  0  0  0  0
    1.8398    1.1011    1.3441 H   0  0  0  0  0  0  0  0  0  0  0  0
    2.8757   -0.9003   -3.2977 C   0  0  0  0  0  0  0  0  0  0  0  0
    3.2892   -0.2013   -4.0554 H   0  0  0  0  0  0  0  0  0  0  0  0
    1.4551   -1.3375   -3.6172 C   0  0  0  0  0  0  0  0  0  0  0  0
    1.3847   -1.8314   -4.5893 H   0  0  0  0  0  0  0  0  0  0  0  0
    1.0698   -2.0408   -2.8490 H   0  0  0  0  0  0  0  0  0  0  0  0
    0.7702   -0.4644   -3.6201 H   0  0  0  0  0  0  0  0  0  0  0  0
    3.8111   -2.0476   -2.9614 C   0  0  0  0  0  0  0  0  0  0  0  0
    4.8449   -1.7215   -2.8086 H   0  0  0  0  0  0  0  0  0  0  0  0
    3.4881   -2.5323   -2.0181 H   0  0  0  0  0  0  0  0  0  0  0  0
    3.8059   -2.8194   -3.7376 H   0  0  0  0  0  0  0  0  0  0  0  0
    3.6324    0.6732   -1.5668 C   0  0  0  0  0  0  0  0  0  0  0  0
    4.8016    1.0220   -2.2198 C   0  0  0  0  0  0  0  0  0  0  0  0
    5.0203    0.6718   -3.2260 H   0  0  0  0  0  0  0  0  0  0  0  0
    5.7027    1.8531   -1.5624 C   0  0  0  0  0  0  0  0  0  0  0  0
    6.6254    2.1408   -2.0713 H   0  0  0  0  0  0  0  0  0  0  0  0
    5.4528    2.3247   -0.2770 C   0  0  0  0  0  0  0  0  0  0  0  0
    6.1777    2.9694    0.2173 H   0  0  0  0  0  0  0  0  0  0  0  0
    4.2831    1.9644    0.3646 C   0  0  0  0  0  0  0  0  0  0  0  0
    4.0898    2.3190    1.3759 H   0  0  0  0  0  0  0  0  0  0  0  0
    3.3475    1.1489   -0.2748 C   0  0  0  0  0  0  0  0  0  0  0  0
    1.4646   -2.3265   -0.1200 Cl  0  0  0  0  0  0  0  0  0  0  0  0
    0.0212    1.6184   -2.0718 Cl  0  0  0  0  0  0  0  0  0  0  0  0
   -0.6551   -0.1612    0.5462 C   0  0  0  0  0  0  0  0  0  0  0  0
   -1.0724    0.5054    1.7070 N   0  0  0  0  0  0  0  0  0  0  0  0
   -2.2557   -0.1733    2.3914 C   0  0  0  0  0  0  0  0  0  0  0  0
   -2.8336   -1.0842    1.2105 C   0  0  0  0  0  0  0  0  0  0  0  0
   -1.6510   -1.1049    0.2648 N   0  0  0  0  0  0  0  0  0  0  0  0
   -0.4964    1.7185    2.2220 C   0  0  0  0  0  0  0  0  0  0  0  0
    0.5427    4.1331    3.1879 C   0  0  0  0  0  0  0  0  0  0  0  0
   -0.2081    2.7686    1.3268 C   0  0  0  0  0  0  0  0  0  0  0  0
   -0.2498    1.8766    3.5974 C   0  0  0  0  0  0  0  0  0  0  0  0
    0.2645    3.0862    4.0703 C   0  0  0  0  0  0  0  0  0  0  0  0
    0.3107    3.9663    1.8172 C   0  0  0  0  0  0  0  0  0  0  0  0
    0.4526    3.2089    5.1365 H   0  0  0  0  0  0  0  0  0  0  0  0
    0.5333    4.7777    1.1225 H   0  0  0  0  0  0  0  0  0  0  0  0
   -1.5644   -2.0046   -0.8663 C   0  0  0  0  0  0  0  0  0  0  0  0
   -1.5850   -3.7026   -3.0801 C   0  0  0  0  0  0  0  0  0  0  0  0
   -1.6940   -1.4609   -2.1575 C   0  0  0  0  0  0  0  0  0  0  0  0
   -1.3820   -3.3868   -0.6815 C   0  0  0  0  0  0  0  0  0  0  0  0
   -1.4027   -4.2288   -1.7954 C   0  0  0  0  0  0  0  0  0  0  0  0
   -1.7140   -2.3222   -3.2591 C   0  0  0  0  0  0  0  0  0  0  0  0
   -1.7772   -0.3755   -2.2957 H   0  0  0  0  0  0  0  0  0  0  0  0
   -1.1857   -3.7867    0.3129 H   0  0  0  0  0  0  0  0  0  0  0  0
   -1.2626   -5.3010   -1.6618 H   0  0  0  0  0  0  0  0  0  0  0  0
   -1.8305   -1.9087   -4.2607 H   0  0  0  0  0  0  0  0  0  0  0  0
   -1.6128   -4.3686   -3.9403 H   0  0  0  0  0  0  0  0  0  0  0  0
   -0.4498    1.0575    4.2920 H   0  0  0  0  0  0  0  0  0  0  0  0
   -0.3801    2.6409    0.2496 H   0  0  0  0  0  0  0  0  0  0  0  0
    0.9404    5.0736    3.5625 H   0  0  0  0  0  0  0  0  0  0  0  0
   -3.2615    0.8600    2.8921 C   0  0  0  0  0  0  0  0  0  0  0  0
   -4.1964    0.3837    3.2080 H   0  0  0  0  0  0  0  0  0  0  0  0
   -3.5073    1.6079    2.1257 H   0  0  0  0  0  0  0  0  0  0  0  0
   -2.8768    1.4211    3.7545 H   0  0  0  0  0  0  0  0  0  0  0  0
   -1.7306   -1.0123    3.5631 C   0  0  0  0  0  0  0  0  0  0  0  0
   -2.5408   -1.5212    4.0947 H   0  0  0  0  0  0  0  0  0  0  0  0
   -1.2040   -0.3849    4.3007 H   0  0  0  0  0  0  0  0  0  0  0  0
   -1.0086   -1.7712    3.2309 H   0  0  0  0  0  0  0  0  0  0  0  0
   -4.0110   -0.4339    0.4700 C   0  0  0  0  0  0  0  0  0  0  0  0
   -4.9132   -0.3948    1.0877 H   0  0  0  0  0  0  0  0  0  0  0  0
   -4.2628   -0.9977   -0.4389 H   0  0  0  0  0  0  0  0  0  0  0  0
   -3.7765    0.5882    0.1442 H   0  0  0  0  0  0  0  0  0  0  0  0
   -3.2365   -2.4842    1.6674 C   0  0  0  0  0  0  0  0  0  0  0  0
   -3.9918   -2.4393    2.4602 H   0  0  0  0  0  0  0  0  0  0  0  0
   -2.3858   -3.0657    2.0455 H   0  0  0  0  0  0  0  0  0  0  0  0
   -3.6714   -3.0637    0.8408 H   0  0  0  0  0  0  0  0  0  0  0  0
  2  1  1  0  0  0  0
  3  1  2  0  0  0  0
  4  3  1  0  0  0  0
  5  2  1  0  0  0  0
  6  5  1  0  0  0  0
  7  5  1  0  0  0  0
  8  7  1  0  0  0  0
  9  7  1  0  0  0  0
 10  7  1  0  0  0  0
 11  5  1  0  0  0  0
 12 11  1  0  0  0  0
 13 11  1  0  0  0  0
 14 11  1  0  0  0  0
 15  2  1  0  0  0  0
 15 24  1  0  0  0  0
 16 15  2  0  0  0  0
 17 16  1  0  0  0  0
 18 16  1  0  0  0  0
 19 18  1  0  0  0  0
 20 18  2  0  0  0  0
 21 20  1  0  0  0  0
 22 20  1  0  0  0  0
 22 24  2  0  0  0  0
 23 22  1  0  0  0  0
 24  3  1  0  0  0  0
  1 25  1  0  0  0  0
  1 26  1  0  0  0  0
 27 28  1  0  0  0  0
 27 31  1  0  0  0  0
 28 29  1  0  0  0  0
 30 31  1  0  0  0  0
 32 35  2  0  0  0  0
 35 36  1  0  0  0  0
 33 36  2  0  0  0  0
 33 37  1  0  0  0  0
 34 37  2  0  0  0  0
 32 34  1  0  0  0  0
 36 38  1  0  0  0  0
 37 39  1  0  0  0  0
 28 32  1  0  0  0  0
 40 43  2  0  0  0  0
 43 44  1  0  0  0  0
 41 44  2  0  0  0  0
 41 45  1  0  0  0  0
 42 45  2  0  0  0  0
 40 42  1  0  0  0  0
 44 48  1  0  0  0  0
 45 49  1  0  0  0  0
 41 50  1  0  0  0  0
 42 46  1  0  0  0  0
 43 47  1  0  0  0  0
 31 40  1  0  0  0  0
 35 51  1  0  0  0  0
 34 52  1  0  0  0  0
 33 53  1  0  0  0  0
 30 29  1  0  0  0  0
 54 55  1  0  0  0  0
 54 56  1  0  0  0  0
 54 57  1  0  0  0  0
 29 54  1  0  0  0  0
 58 59  1  0  0  0  0
 58 60  1  0  0  0  0
 58 61  1  0  0  0  0
 29 58  1  0  0  0  0
 62 63  1  0  0  0  0
 62 64  1  0  0  0  0
 62 65  1  0  0  0  0
 30 62  1  0  0  0  0
 66 67  1  0  0  0  0
 66 68  1  0  0  0  0
 66 69  1  0  0  0  0
 30 66  1  0  0  0  0
  1 27  1  0  0  0  0
M  END
> <FrozenCore-PM6_ENERGY>
115.965

> <RMSD_CONF_CG-CS>
0.204752

> <RMSD_CONF_GO-CS>
0.000000

> <UID>


> <DESCRIPTOR_DEFINITION_1>
desc1=( echo "1 * ( e( $hartree_to_kcalmol * ( ( $freeEnergyZ - $freeEnergyD ) - ( $freeEnergyX + 2*$G_Ethene - $freeEnergyD - 2*$G_Propene ) - $DDG_reference_HGII ) / $kT ) ) " | bc -l )

> <DESCRIPTOR_DEFINITION_2>
desc1=( echo "1 * ( e( $hartree_to_kcalmol * ( ( $freeEnergyZ - $freeEnergyD ) - ( $freeEnergyX + 2*$G_Ethene - $freeEnergyD - 2*$G_Propene ) - $DDG_reference_HGII ) / $kT ) ) " | bc -l )

> <DESCRIPTOR_DEFINITION_3>
desc1=( echo "1 * ( e( $hartree_to_kcalmol * ( ( $freeEnergyZ - $freeEnergyD ) - ( $freeEnergyX + 2*$G_Ethene - $freeEnergyD - 2*$G_Propene ) - $DDG_reference_HGII ) / $kT ) ) " | bc -l )

> <WEIGHT_DEFINITION_1>
w1=$( echo "1 / ( 1 + e( $hartree_to_kcalmol * ( ( ( $freeEnergyX + 2*$G_Ethene - $freeEnergyD - 2*$G_Propene ) ) - ( $DG_referenceProductionBarrier + $magnitude4 ) ) / $kT ) )" | bc -l )

> <WEIGHT_DEFINITION_2>
w1=$( echo "1 / ( 1 + e( $hartree_to_kcalmol * ( ( ( $freeEnergyX + 2*$G_Ethene - $freeEnergyD - 2*$G_Propene ) ) - ( $DG_referenceProductionBarrier + $magnitude4 ) ) / $kT ) )" | bc -l )

> <WEIGHT_DEFINITION_3>
w1=$( echo "1 / ( 1 + e( $hartree_to_kcalmol * ( ( ( $freeEnergyX + 2*$G_Ethene - $freeEnergyD - 2*$G_Propene ) ) - ( $DG_referenceProductionBarrier + $magnitude4 ) ) / $kT ) )" | bc -l )

> <WEIGHT_DEFINITION_4>
w1=$( echo "1 / ( 1 + e( $hartree_to_kcalmol * ( ( ( $freeEnergyX + 2*$G_Ethene - $freeEnergyD - 2*$G_Propene ) ) - ( $DG_referenceProductionBarrier + $magnitude4 ) ) / $kT ) )" | bc -l )

> <CALCULATION_OF_OVERALL_FITNESS>
fitness=$( echo "( $desc1 + $desc2 + $desc3 ) * ( $w1 * $w2 * $w3 * $w4 )" | bc -l )

> <freeEnergyA>
-2323.604735

> <freeEnergyF>
-2323.58765827

> <freeEnergyE>
-2323.604735

> <freeEnergyC>
-1978.34306748

> <freeEnergyL>
-845.737229159

> <freeEnergyX>
-2056.87435787

> <freeEnergyZ>
-1978.33235341

> <freeEnergyD>
-1978.36672333

> <G_Propene>
-117.738020895

> <G_Ethene>
-78.4716324751

> <G_HoveydaProd>
-502.204109499

> <G_SIMes>
-924.27249048

> <G_HG_RuCl2_SIMes>
-2402.13728523

> <DG_referenceProductionBarrier>
0.01468968

> <DG_referencePrecursorStabilityHII>
-0.0052201621

> <DG_referencePrecursorStabilityHI>
0.0117775312

> <DDG_referencePrecursorStability>
.0169976933

> <DG_referenceSynt>
0.0226072217

> <hartree_to_kcalmol>
627.49467516

> <boltzmann_constant>
0.0000000000000000000000138066

> <avogadro_number>
602214000000000000000000

> <jmol_to_kcalmol>
0.00023901

> <temp>
313.15

> <kT>
.6223089948281258706000000000

> <magnitude1>
1.43290809

> <magnitude2>
2.86581618

> <magnitude3>
4.29872427

> <magnitude4>
5.73163236

> <DFT_IDENTIFIER>
1723564719680

> <DFT_MACHINE>
158.39.114.73

> <XTB_IDENTIFIER>
NREC

> <XTB_MACHINE>
NREC

> <DESCRIPTOR_1>
.00000202077153803935

> <DESCRIPTOR_2>
5.790282539898854232

> <DESCRIPTOR_3>
0.0000000001

> <WEIGHT_1>
.99819514704748984367

> <WEIGHT_2>
.99999840464213107938

> <WEIGHT_3>
.99999999999918195132

> <WEIGHT_4>
.99999667452941074664

> <FITNESS>
5.77980550703956981927

$$$$
