
  CDK     08132405503D

 61 64  0  0  0  0  0  0  0  0999 V2000
   -0.6519   -3.6142   -2.1418 C   0  0  0  0  0  0  0  0  0  0  0  0
    0.3843   -3.6388   -2.5238 H   0  0  0  0  0  0  0  0  0  0  0  0
   -1.1906   -4.5318   -2.4696 H   0  0  0  0  0  0  0  0  0  0  0  0
   -1.1731   -2.7554   -2.6074 H   0  0  0  0  0  0  0  0  0  0  0  0
   -0.6964   -3.5391   -0.6350 C   0  0  0  0  0  0  0  0  0  0  0  0
   -1.7057   -3.5129   -0.1824 H   0  0  0  0  0  0  0  0  0  0  0  0
    0.3199   -4.0735    0.1998 C   0  0  0  0  0  0  0  0  0  0  0  0
    1.2647   -4.3572   -0.2966 H   0  0  0  0  0  0  0  0  0  0  0  0
   -0.0415   -4.7775    1.4879 C   0  0  0  0  0  0  0  0  0  0  0  0
    0.8277   -4.9209    2.1570 H   0  0  0  0  0  0  0  0  0  0  0  0
   -0.4425   -5.7839    1.2387 H   0  0  0  0  0  0  0  0  0  0  0  0
   -0.8299   -4.2166    2.0277 H   0  0  0  0  0  0  0  0  0  0  0  0
    1.3575   -2.3205    1.3117 C   0  0  0  0  0  0  0  0  0  0  0  0
    1.0279   -2.4521    2.3650 H   0  0  0  0  0  0  0  0  0  0  0  0
    2.4148   -2.5628    1.0673 H   0  0  0  0  0  0  0  0  0  0  0  0
    0.2200   -1.6708    0.0323 Ru  0  0  0  0  0  0  0  0  0  0  0  0
   -1.5845   -1.5389    1.6348 Cl  0  0  0  0  0  0  0  0  0  0  0  0
    1.9903   -1.7091   -1.5989 Cl  0  0  0  0  0  0  0  0  0  0  0  0
    0.1719    0.3072    0.0475 C   0  0  0  0  0  0  0  0  0  0  0  0
    0.7554    1.2119    0.8794 N   0  0  0  0  0  0  0  0  0  0  0  0
    0.0117    2.5221    0.8290 C   0  0  0  0  0  0  0  0  0  0  0  0
   -0.5422    2.4505   -0.6463 C   0  0  0  0  0  0  0  0  0  0  0  0
   -0.6874    0.9660   -0.7627 N   0  0  0  0  0  0  0  0  0  0  0  0
    1.8697    0.9217    1.7115 C   0  0  0  0  0  0  0  0  0  0  0  0
    4.1265    0.3379    3.2915 C   0  0  0  0  0  0  0  0  0  0  0  0
    3.0085    0.3296    1.1278 C   0  0  0  0  0  0  0  0  0  0  0  0
    1.8629    1.2125    3.0889 C   0  0  0  0  0  0  0  0  0  0  0  0
    2.9938    0.9313    3.8687 C   0  0  0  0  0  0  0  0  0  0  0  0
    4.1229    0.0300    1.9219 C   0  0  0  0  0  0  0  0  0  0  0  0
    2.9776    1.1619    4.9437 H   0  0  0  0  0  0  0  0  0  0  0  0
    5.0006   -0.4420    1.4570 H   0  0  0  0  0  0  0  0  0  0  0  0
   -1.4347    0.2852   -1.7752 C   0  0  0  0  0  0  0  0  0  0  0  0
   -2.9480   -0.9932   -3.7559 C   0  0  0  0  0  0  0  0  0  0  0  0
   -0.8908    0.1036   -3.0612 C   0  0  0  0  0  0  0  0  0  0  0  0
   -2.7136   -0.2125   -1.4642 C   0  0  0  0  0  0  0  0  0  0  0  0
   -3.4669   -0.8529   -2.4589 C   0  0  0  0  0  0  0  0  0  0  0  0
   -1.6575   -0.5249   -4.0525 C   0  0  0  0  0  0  0  0  0  0  0  0
    0.1403    0.4218   -3.2595 H   0  0  0  0  0  0  0  0  0  0  0  0
   -3.0817   -0.1185   -0.4340 H   0  0  0  0  0  0  0  0  0  0  0  0
   -4.4637   -1.2476   -2.2159 H   0  0  0  0  0  0  0  0  0  0  0  0
   -1.2340   -0.6693   -5.0565 H   0  0  0  0  0  0  0  0  0  0  0  0
   -3.5434   -1.4907   -4.5351 H   0  0  0  0  0  0  0  0  0  0  0  0
    0.9649    1.6310    3.5590 H   0  0  0  0  0  0  0  0  0  0  0  0
    2.9941    0.0782    0.0567 H   0  0  0  0  0  0  0  0  0  0  0  0
    5.0075    0.1119    3.9092 H   0  0  0  0  0  0  0  0  0  0  0  0
    0.9342    3.7114    1.0800 C   0  0  0  0  0  0  0  0  0  0  0  0
    0.3890    4.6550    0.8778 H   0  0  0  0  0  0  0  0  0  0  0  0
    1.8388    3.6807    0.4463 H   0  0  0  0  0  0  0  0  0  0  0  0
    1.2630    3.7334    2.1360 H   0  0  0  0  0  0  0  0  0  0  0  0
   -1.1291    2.4789    1.8605 C   0  0  0  0  0  0  0  0  0  0  0  0
   -1.7621    3.3845    1.7893 H   0  0  0  0  0  0  0  0  0  0  0  0
   -0.7169    2.4468    2.8858 H   0  0  0  0  0  0  0  0  0  0  0  0
   -1.7537    1.5747    1.7218 H   0  0  0  0  0  0  0  0  0  0  0  0
    0.4796    2.9327   -1.6885 C   0  0  0  0  0  0  0  0  0  0  0  0
    0.6356    4.0268   -1.6190 H   0  0  0  0  0  0  0  0  0  0  0  0
    0.1033    2.7136   -2.7062 H   0  0  0  0  0  0  0  0  0  0  0  0
    1.4533    2.4214   -1.5603 H   0  0  0  0  0  0  0  0  0  0  0  0
   -1.8826    3.1492   -0.8602 C   0  0  0  0  0  0  0  0  0  0  0  0
   -1.7883    4.2326   -0.6464 H   0  0  0  0  0  0  0  0  0  0  0  0
   -2.6812    2.7285   -0.2237 H   0  0  0  0  0  0  0  0  0  0  0  0
   -2.1977    3.0409   -1.9164 H   0  0  0  0  0  0  0  0  0  0  0  0
  1  2  1  0  0  0  0
  1  5  1  0  0  0  0
  3  1  1  0  0  0  0
  4  1  1  0  0  0  0
  5  6  1  0  0  0  0
  5 16  1  0  0  0  0
  5  7  1  0  0  0  0
  7  9  1  0  0  0  0
  7  8  1  0  0  0  0
  9 10  1  0  0  0  0
 11  9  1  0  0  0  0
 12  9  1  0  0  0  0
 13 14  1  0  0  0  0
 13 15  1  0  0  0  0
 13  7  1  0  0  0  0
 16 13  1  0  0  0  0
 16 17  1  0  0  0  0
 16 18  1  0  0  0  0
 19 20  1  0  0  0  0
 19 23  1  0  0  0  0
 20 21  1  0  0  0  0
 22 23  1  0  0  0  0
 24 27  2  0  0  0  0
 27 28  1  0  0  0  0
 25 28  2  0  0  0  0
 25 29  1  0  0  0  0
 26 29  2  0  0  0  0
 24 26  1  0  0  0  0
 28 30  1  0  0  0  0
 29 31  1  0  0  0  0
 20 24  1  0  0  0  0
 32 35  2  0  0  0  0
 35 36  1  0  0  0  0
 33 36  2  0  0  0  0
 33 37  1  0  0  0  0
 34 37  2  0  0  0  0
 32 34  1  0  0  0  0
 36 40  1  0  0  0  0
 37 41  1  0  0  0  0
 33 42  1  0  0  0  0
 34 38  1  0  0  0  0
 35 39  1  0  0  0  0
 23 32  1  0  0  0  0
 27 43  1  0  0  0  0
 26 44  1  0  0  0  0
 25 45  1  0  0  0  0
 22 21  1  0  0  0  0
 46 47  1  0  0  0  0
 46 48  1  0  0  0  0
 46 49  1  0  0  0  0
 21 46  1  0  0  0  0
 50 51  1  0  0  0  0
 50 52  1  0  0  0  0
 50 53  1  0  0  0  0
 21 50  1  0  0  0  0
 54 55  1  0  0  0  0
 54 56  1  0  0  0  0
 54 57  1  0  0  0  0
 22 54  1  0  0  0  0
 58 59  1  0  0  0  0
 58 60  1  0  0  0  0
 58 61  1  0  0  0  0
 22 58  1  0  0  0  0
 16 19  1  0  0  0  0
M  END
>  <DFT-ENERGY>
-2056.8743581

$$$$
