CpMes-0_A2
  CDK     08122412303D

 67 71  0  0  0  0  0  0  0  0999 V2000
    0.3075   -0.3164   -0.8339 Ru  0  0  0  0  0  0  0  0  0  0  0  0
    2.0853   -0.3164   -2.2231 O   0  0  0  0  0  0  0  0  0  0  0  0
    1.5177    0.6169    0.1702 C   0  0  0  0  0  0  0  0  0  0  0  0
    1.2849    0.9098    1.1929 H   0  0  0  0  0  0  0  0  0  0  0  0
    2.3208   -1.0916   -3.4489 C   0  0  0  0  0  0  0  0  0  0  0  0
    2.7549   -0.3983   -4.2006 H   0  0  0  0  0  0  0  0  0  0  0  0
    0.8955   -1.5017   -3.7930 C   0  0  0  0  0  0  0  0  0  0  0  0
    0.8378   -2.0046   -4.7618 H   0  0  0  0  0  0  0  0  0  0  0  0
    0.4748   -2.1865   -3.0240 H   0  0  0  0  0  0  0  0  0  0  0  0
    0.2359   -0.6105   -3.8224 H   0  0  0  0  0  0  0  0  0  0  0  0
    3.2326   -2.2551   -3.1059 C   0  0  0  0  0  0  0  0  0  0  0  0
    3.2233   -3.0262   -3.8826 H   0  0  0  0  0  0  0  0  0  0  0  0
    4.2701   -1.9449   -2.9431 H   0  0  0  0  0  0  0  0  0  0  0  0
    2.8957   -2.7351   -2.1650 H   0  0  0  0  0  0  0  0  0  0  0  0
    3.0775    0.4820   -1.7181 C   0  0  0  0  0  0  0  0  0  0  0  0
    4.2466    0.8307   -2.3711 C   0  0  0  0  0  0  0  0  0  0  0  0
    4.4656    0.4796   -3.3769 H   0  0  0  0  0  0  0  0  0  0  0  0
    5.1478    1.6618   -1.7136 C   0  0  0  0  0  0  0  0  0  0  0  0
    6.0705    1.9494   -2.2225 H   0  0  0  0  0  0  0  0  0  0  0  0
    4.8978    2.1334   -0.4283 C   0  0  0  0  0  0  0  0  0  0  0  0
    5.6226    2.7782    0.0660 H   0  0  0  0  0  0  0  0  0  0  0  0
    3.7281    1.7731    0.2133 C   0  0  0  0  0  0  0  0  0  0  0  0
    3.5349    2.1277    1.2246 H   0  0  0  0  0  0  0  0  0  0  0  0
    2.7926    0.9577   -0.4261 C   0  0  0  0  0  0  0  0  0  0  0  0
    0.9092   -2.5161   -0.2717 Cl  0  0  0  0  0  0  0  0  0  0  0  0
   -0.5173    1.3930   -2.1959 Cl  0  0  0  0  0  0  0  0  0  0  0  0
   -1.2803   -0.3387    0.3263 C   0  0  0  0  0  0  0  0  0  0  0  0
   -1.5838    0.0256    1.6407 N   0  0  0  0  0  0  0  0  0  0  0  0
   -2.9180   -0.3586    1.9740 C   0  0  0  0  0  0  0  0  0  0  0  0
   -3.4636   -0.9495    0.8599 C   0  0  0  0  0  0  0  0  0  0  0  0
   -2.4762   -0.9204   -0.1593 N   0  0  0  0  0  0  0  0  0  0  0  0
   -0.7452    0.7053    2.5964 C   0  0  0  0  0  0  0  0  0  0  0  0
    0.7180    2.0463    4.5644 C   0  0  0  0  0  0  0  0  0  0  0  0
   -0.6617    2.1186    2.5583 C   0  0  0  0  0  0  0  0  0  0  0  0
   -0.0398   -0.0436    3.5667 C   0  0  0  0  0  0  0  0  0  0  0  0
    0.6762    0.6447    4.5539 C   0  0  0  0  0  0  0  0  0  0  0  0
    0.0635    2.7744    3.5588 C   0  0  0  0  0  0  0  0  0  0  0  0
    1.2100    0.0819    5.3171 H   0  0  0  0  0  0  0  0  0  0  0  0
    0.1218    3.8610    3.5532 H   0  0  0  0  0  0  0  0  0  0  0  0
   -0.0341   -1.5323    3.5110 C   0  0  0  0  0  0  0  0  0  0  0  0
    0.6249   -1.9905    4.2586 H   0  0  0  0  0  0  0  0  0  0  0  0
    0.3156   -1.8865    2.5172 H   0  0  0  0  0  0  0  0  0  0  0  0
   -1.0391   -1.9544    3.6532 H   0  0  0  0  0  0  0  0  0  0  0  0
   -1.2998    2.8783    1.4464 C   0  0  0  0  0  0  0  0  0  0  0  0
   -1.0725    3.9513    1.4686 H   0  0  0  0  0  0  0  0  0  0  0  0
   -2.3946    2.7742    1.4524 H   0  0  0  0  0  0  0  0  0  0  0  0
   -0.9561    2.5009    0.4574 H   0  0  0  0  0  0  0  0  0  0  0  0
    1.4574    2.7661    5.6441 C   0  0  0  0  0  0  0  0  0  0  0  0
    0.7808    3.0126    6.4772 H   0  0  0  0  0  0  0  0  0  0  0  0
    1.8942    3.7115    5.2941 H   0  0  0  0  0  0  0  0  0  0  0  0
    2.2790    2.1689    6.0626 H   0  0  0  0  0  0  0  0  0  0  0  0
   -4.4382   -1.3790    0.7135 H   0  0  0  0  0  0  0  0  0  0  0  0
   -3.3386   -0.1746    2.9449 H   0  0  0  0  0  0  0  0  0  0  0  0
   -2.6305   -1.4258   -1.5550 C   0  0  0  0  0  0  0  0  0  0  0  0
   -1.9569   -2.8135   -1.7002 C   0  0  0  0  0  0  0  0  0  0  0  0
   -2.9721   -3.7278   -2.4010 C   0  0  0  0  0  0  0  0  0  0  0  0
   -4.3540   -3.0895   -2.1724 C   0  0  0  0  0  0  0  0  0  0  0  0
   -4.1029   -1.5827   -2.0005 C   0  0  0  0  0  0  0  0  0  0  0  0
   -2.1240   -0.6687   -2.2278 H   0  0  0  0  0  0  0  0  0  0  0  0
   -1.6686   -3.2281   -0.7116 H   0  0  0  0  0  0  0  0  0  0  0  0
   -1.0002   -2.7294   -2.2620 H   0  0  0  0  0  0  0  0  0  0  0  0
   -2.7512   -3.8022   -3.4804 H   0  0  0  0  0  0  0  0  0  0  0  0
   -2.9288   -4.7556   -2.0041 H   0  0  0  0  0  0  0  0  0  0  0  0
   -4.8286   -3.5104   -1.2683 H   0  0  0  0  0  0  0  0  0  0  0  0
   -5.0403   -3.2938   -3.0101 H   0  0  0  0  0  0  0  0  0  0  0  0
   -4.8209   -1.1226   -1.3028 H   0  0  0  0  0  0  0  0  0  0  0  0
   -4.2488   -1.0524   -2.9610 H   0  0  0  0  0  0  0  0  0  0  0  0
  2  1  1  0  0  0  0
  3  1  2  0  0  0  0
  4  3  1  0  0  0  0
  5  2  1  0  0  0  0
  6  5  1  0  0  0  0
  7  5  1  0  0  0  0
  8  7  1  0  0  0  0
  9  7  1  0  0  0  0
 10  7  1  0  0  0  0
 11  5  1  0  0  0  0
 12 11  1  0  0  0  0
 13 11  1  0  0  0  0
 14 11  1  0  0  0  0
 15  2  1  0  0  0  0
 15 24  1  0  0  0  0
 16 15  2  0  0  0  0
 17 16  1  0  0  0  0
 18 16  1  0  0  0  0
 19 18  1  0  0  0  0
 20 18  2  0  0  0  0
 21 20  1  0  0  0  0
 22 20  1  0  0  0  0
 22 24  2  0  0  0  0
 23 22  1  0  0  0  0
 24  3  1  0  0  0  0
  1 25  1  0  0  0  0
  1 26  1  0  0  0  0
 27 28  1  0  0  0  0
 27 31  1  0  0  0  0
 28 29  1  0  0  0  0
 29 30  2  0  0  0  0
 30 31  1  0  0  0  0
 32 35  2  0  0  0  0
 35 36  1  0  0  0  0
 33 36  2  0  0  0  0
 33 37  1  0  0  0  0
 34 37  2  0  0  0  0
 32 34  1  0  0  0  0
 36 38  1  0  0  0  0
 37 39  1  0  0  0  0
 28 32  1  0  0  0  0
 40 41  1  0  0  0  0
 40 42  1  0  0  0  0
 40 43  1  0  0  0  0
 35 40  1  0  0  0  0
 44 45  1  0  0  0  0
 44 46  1  0  0  0  0
 44 47  1  0  0  0  0
 34 44  1  0  0  0  0
 48 49  1  0  0  0  0
 48 50  1  0  0  0  0
 48 51  1  0  0  0  0
 33 48  1  0  0  0  0
 30 52  1  0  0  0  0
 29 53  1  0  0  0  0
 54 59  1  0  0  0  0
 54 55  1  0  0  0  0
 54 58  1  0  0  0  0
 55 60  1  0  0  0  0
 55 61  1  0  0  0  0
 55 56  1  0  0  0  0
 56 62  1  0  0  0  0
 56 63  1  0  0  0  0
 56 57  1  0  0  0  0
 57 64  1  0  0  0  0
 57 65  1  0  0  0  0
 57 58  1  0  0  0  0
 58 66  1  0  0  0  0
 58 67  1  0  0  0  0
 31 54  1  0  0  0  0
  1 27  1  0  0  0  0
M  END
> <FrozenCore-PM6_ENERGY>
-29.429

> <RMSD_CONF_CG-CS>
0.675446

> <RMSD_CONF_GO-CS>
0.000000

> <UID>


> <DESCRIPTOR_DEFINITION_1>
desc1=( echo "1 * ( e( $hartree_to_kcalmol * ( ( $freeEnergyZ - $freeEnergyD ) - ( $freeEnergyX + 2*$G_Ethene - $freeEnergyD - 2*$G_Propene ) - $DDG_reference_HGII ) / $kT ) ) " | bc -l )

> <DESCRIPTOR_DEFINITION_2>
desc1=( echo "1 * ( e( $hartree_to_kcalmol * ( ( $freeEnergyZ - $freeEnergyD ) - ( $freeEnergyX + 2*$G_Ethene - $freeEnergyD - 2*$G_Propene ) - $DDG_reference_HGII ) / $kT ) ) " | bc -l )

> <DESCRIPTOR_DEFINITION_3>
desc1=( echo "1 * ( e( $hartree_to_kcalmol * ( ( $freeEnergyZ - $freeEnergyD ) - ( $freeEnergyX + 2*$G_Ethene - $freeEnergyD - 2*$G_Propene ) - $DDG_reference_HGII ) / $kT ) ) " | bc -l )

> <WEIGHT_DEFINITION_1>
w1=$( echo "1 / ( 1 + e( $hartree_to_kcalmol * ( ( ( $freeEnergyX + 2*$G_Ethene - $freeEnergyD - 2*$G_Propene ) ) - ( $DG_referenceProductionBarrier + $magnitude4 ) ) / $kT ) )" | bc -l )

> <WEIGHT_DEFINITION_2>
w1=$( echo "1 / ( 1 + e( $hartree_to_kcalmol * ( ( ( $freeEnergyX + 2*$G_Ethene - $freeEnergyD - 2*$G_Propene ) ) - ( $DG_referenceProductionBarrier + $magnitude4 ) ) / $kT ) )" | bc -l )

> <WEIGHT_DEFINITION_3>
w1=$( echo "1 / ( 1 + e( $hartree_to_kcalmol * ( ( ( $freeEnergyX + 2*$G_Ethene - $freeEnergyD - 2*$G_Propene ) ) - ( $DG_referenceProductionBarrier + $magnitude4 ) ) / $kT ) )" | bc -l )

> <WEIGHT_DEFINITION_4>
w1=$( echo "1 / ( 1 + e( $hartree_to_kcalmol * ( ( ( $freeEnergyX + 2*$G_Ethene - $freeEnergyD - 2*$G_Propene ) ) - ( $DG_referenceProductionBarrier + $magnitude4 ) ) / $kT ) )" | bc -l )

> <CALCULATION_OF_OVERALL_FITNESS>
fitness=$( echo "( $desc1 + $desc2 + $desc3 ) * ( $w1 * $w2 * $w3 * $w4 )" | bc -l )

> <freeEnergyA>
-2247.47668963

> <freeEnergyF>
-2247.46519733

> <freeEnergyE>
-2247.47668963

> <freeEnergyC>
-1902.21701982

> <freeEnergyL>
-769.613252594

> <freeEnergyX>
-1980.74570634

> <freeEnergyZ>
-1902.19976603

> <freeEnergyD>
-1902.23573944

> <G_Propene>
-117.738020895

> <G_Ethene>
-78.4716324751

> <G_HoveydaProd>
-502.204109499

> <G_SIMes>
-924.27249048

> <G_HG_RuCl2_SIMes>
-2402.13728523

> <DG_referenceProductionBarrier>
0.01468968

> <DG_referencePrecursorStabilityHII>
-0.0052201621

> <DG_referencePrecursorStabilityHI>
0.0117775312

> <DDG_referencePrecursorStability>
.0169976933

> <DG_referenceSynt>
0.0226072217

> <hartree_to_kcalmol>
627.49467516

> <boltzmann_constant>
0.0000000000000000000000138066

> <avogadro_number>
602214000000000000000000

> <jmol_to_kcalmol>
0.00023901

> <temp>
313.15

> <kT>
.6223089948281258706000000000

> <magnitude1>
1.43290809

> <magnitude2>
2.86581618

> <magnitude3>
4.29872427

> <magnitude4>
5.73163236

> <DFT_IDENTIFIER>
1723554513133

> <DFT_MACHINE>
158.39.114.73

> <XTB_IDENTIFIER>
NREC

> <XTB_MACHINE>
NREC

> <DESCRIPTOR_1>
.00010692489758268408

> <DESCRIPTOR_2>
8.260007457127340232

> <DESCRIPTOR_3>
0.0000000001

> <WEIGHT_1>
.99982790041514279757

> <WEIGHT_2>
.99999978716911350084

> <WEIGHT_3>
.99999999995050474591

> <WEIGHT_4>
.99907327928596150806

> <FITNESS>
8.25103756167743292439

$$$$
