
  CDK     07282421313D

 81 85  0  0  0  0  0  0  0  0999 V2000
    0.8560    0.9250    0.3821 Ru  0  0  0  0  0  0  0  0  0  0  0  0
    2.3078    0.4650   -0.8644 C   0  0  0  0  0  0  0  0  0  0  0  0
    2.0955    0.5835   -1.9425 H   0  0  0  0  0  0  0  0  0  0  0  0
    2.8718    1.7954   -0.2132 C   0  0  0  0  0  0  0  0  0  0  0  0
    3.0055    2.5159   -1.0406 H   0  0  0  0  0  0  0  0  0  0  0  0
    1.9472    2.4978    0.8588 C   0  0  0  0  0  0  0  0  0  0  0  0
    2.3825    2.4967    1.8748 H   0  0  0  0  0  0  0  0  0  0  0  0
    1.5925    3.4928    0.5325 H   0  0  0  0  0  0  0  0  0  0  0  0
    3.8177    1.5308    0.2951 H   0  0  0  0  0  0  0  0  0  0  0  0
    2.9135   -0.4262   -0.6114 H   0  0  0  0  0  0  0  0  0  0  0  0
   -0.1116    2.3136   -1.1066 C   0  0  0  0  0  0  0  0  0  0  0  0
   -1.0434    1.8242   -1.4317 H   0  0  0  0  0  0  0  0  0  0  0  0
   -0.3844    3.2079   -0.5050 H   0  0  0  0  0  0  0  0  0  0  0  0
    0.6881    2.7091   -2.2833 C   0  0  0  0  0  0  0  0  0  0  0  0
    2.3015    3.4178   -4.5427 C   0  0  0  0  0  0  0  0  0  0  0  0
    0.8126    1.8538   -3.4124 C   0  0  0  0  0  0  0  0  0  0  0  0
    1.3999    3.9369   -2.3387 C   0  0  0  0  0  0  0  0  0  0  0  0
    2.1930    4.2831   -3.4423 C   0  0  0  0  0  0  0  0  0  0  0  0
    1.5981    2.2017   -4.5186 C   0  0  0  0  0  0  0  0  0  0  0  0
    0.2750    0.8931   -3.4074 H   0  0  0  0  0  0  0  0  0  0  0  0
    1.3012    4.6449   -1.5002 H   0  0  0  0  0  0  0  0  0  0  0  0
    2.7231    5.2479   -3.4475 H   0  0  0  0  0  0  0  0  0  0  0  0
    1.6625    1.5131   -5.3754 H   0  0  0  0  0  0  0  0  0  0  0  0
    2.9181    3.6912   -5.4108 H   0  0  0  0  0  0  0  0  0  0  0  0
    2.0670   -0.2558    1.8266 C   0  0  0  0  0  0  0  0  0  0  0  0
    2.1044   -1.2962    1.4500 H   0  0  0  0  0  0  0  0  0  0  0  0
    3.0940    0.1602    1.7291 H   0  0  0  0  0  0  0  0  0  0  0  0
    1.6668   -0.2254    3.2543 C   0  0  0  0  0  0  0  0  0  0  0  0
    0.7986   -0.0826    5.9849 C   0  0  0  0  0  0  0  0  0  0  0  0
    0.8384   -1.2231    3.8322 C   0  0  0  0  0  0  0  0  0  0  0  0
    2.0799    0.8208    4.1193 C   0  0  0  0  0  0  0  0  0  0  0  0
    1.6487    0.8992    5.4495 C   0  0  0  0  0  0  0  0  0  0  0  0
    0.4101   -1.1551    5.1645 C   0  0  0  0  0  0  0  0  0  0  0  0
    0.5303   -2.0824    3.2185 H   0  0  0  0  0  0  0  0  0  0  0  0
    2.7644    1.5913    3.7316 H   0  0  0  0  0  0  0  0  0  0  0  0
    1.9885    1.7344    6.0810 H   0  0  0  0  0  0  0  0  0  0  0  0
   -0.2304   -1.9538    5.5698 H   0  0  0  0  0  0  0  0  0  0  0  0
    0.4608   -0.0239    7.0294 H   0  0  0  0  0  0  0  0  0  0  0  0
   -0.8961    0.2507    0.8348 C   0  0  0  0  0  0  0  0  0  0  0  0
   -1.8499    0.8994    1.8486 C   0  0  0  0  0  0  0  0  0  0  0  0
   -2.7180   -0.3174    2.2589 C   0  0  0  0  0  0  0  0  0  0  0  0
   -2.7450   -1.2876    1.0530 C   0  0  0  0  0  0  0  0  0  0  0  0
   -1.5101   -0.8320    0.3012 N   0  0  0  0  0  0  0  0  0  0  0  0
   -2.2358   -0.8179    3.1218 H   0  0  0  0  0  0  0  0  0  0  0  0
   -3.7386   -0.0149    2.5642 H   0  0  0  0  0  0  0  0  0  0  0  0
   -0.9966   -1.4667   -0.8960 C   0  0  0  0  0  0  0  0  0  0  0  0
    0.1338   -2.5723   -3.2580 C   0  0  0  0  0  0  0  0  0  0  0  0
   -1.4377   -1.0179   -2.1716 C   0  0  0  0  0  0  0  0  0  0  0  0
   -0.0179   -2.4887   -0.8037 C   0  0  0  0  0  0  0  0  0  0  0  0
    0.5305   -3.0131   -1.9888 C   0  0  0  0  0  0  0  0  0  0  0  0
   -0.8626   -1.5851   -3.3210 C   0  0  0  0  0  0  0  0  0  0  0  0
    1.3023   -3.7942   -1.9055 H   0  0  0  0  0  0  0  0  0  0  0  0
   -1.2021   -1.2245   -4.3051 H   0  0  0  0  0  0  0  0  0  0  0  0
   -1.1628    1.5664    3.0446 C   0  0  0  0  0  0  0  0  0  0  0  0
   -0.4537    2.3479    2.7041 H   0  0  0  0  0  0  0  0  0  0  0  0
   -0.6043    0.8427    3.6598 H   0  0  0  0  0  0  0  0  0  0  0  0
   -1.9245    2.0583    3.6832 H   0  0  0  0  0  0  0  0  0  0  0  0
   -2.6868    1.9754    1.1188 C   0  0  0  0  0  0  0  0  0  0  0  0
   -3.1750    1.5982    0.2013 H   0  0  0  0  0  0  0  0  0  0  0  0
   -2.0547    2.8352    0.8297 H   0  0  0  0  0  0  0  0  0  0  0  0
   -3.4799    2.3396    1.8033 H   0  0  0  0  0  0  0  0  0  0  0  0
   -2.6014   -2.7472    1.5010 C   0  0  0  0  0  0  0  0  0  0  0  0
   -1.7361   -2.8826    2.1740 H   0  0  0  0  0  0  0  0  0  0  0  0
   -2.4922   -3.4269    0.6325 H   0  0  0  0  0  0  0  0  0  0  0  0
   -3.5143   -3.0472    2.0532 H   0  0  0  0  0  0  0  0  0  0  0  0
   -4.0171   -1.1709    0.1996 C   0  0  0  0  0  0  0  0  0  0  0  0
   -4.8790   -1.5472    0.7853 H   0  0  0  0  0  0  0  0  0  0  0  0
   -3.9368   -1.7917   -0.7143 H   0  0  0  0  0  0  0  0  0  0  0  0
   -4.2384   -0.1312   -0.0976 H   0  0  0  0  0  0  0  0  0  0  0  0
   -2.5007    0.0316   -2.3755 C   0  0  0  0  0  0  0  0  0  0  0  0
   -2.6866    0.6260   -1.4680 H   0  0  0  0  0  0  0  0  0  0  0  0
   -3.4611   -0.4344   -2.6781 H   0  0  0  0  0  0  0  0  0  0  0  0
   -2.2041    0.7285   -3.1830 H   0  0  0  0  0  0  0  0  0  0  0  0
    0.4530   -3.0612    0.5044 C   0  0  0  0  0  0  0  0  0  0  0  0
    0.2172   -2.3975    1.3489 H   0  0  0  0  0  0  0  0  0  0  0  0
    1.5486   -3.2194    0.4899 H   0  0  0  0  0  0  0  0  0  0  0  0
   -0.0182   -4.0477    0.6945 H   0  0  0  0  0  0  0  0  0  0  0  0
    0.7683   -3.1105   -4.5146 C   0  0  0  0  0  0  0  0  0  0  0  0
    0.0072   -3.3444   -5.2858 H   0  0  0  0  0  0  0  0  0  0  0  0
    1.3548   -4.0278   -4.3163 H   0  0  0  0  0  0  0  0  0  0  0  0
    1.4577   -2.3609   -4.9579 H   0  0  0  0  0  0  0  0  0  0  0  0
  2  4  1  0  0  0  0
  2  1  1  0  0  0  0
  2  3  1  0  0  0  0
  4  6  1  0  0  0  0
  4  5  1  0  0  0  0
  6  1  1  0  0  0  0
  6  8  1  0  0  0  0
  7  6  1  0  0  0  0
  9  4  1  0  0  0  0
 10  2  1  0  0  0  0
 11 12  1  0  0  0  0
 11 13  1  0  0  0  0
 14 17  2  0  0  0  0
 17 18  1  0  0  0  0
 15 18  2  0  0  0  0
 15 19  1  0  0  0  0
 16 19  2  0  0  0  0
 14 16  1  0  0  0  0
 18 22  1  0  0  0  0
 19 23  1  0  0  0  0
 15 24  1  0  0  0  0
 16 20  1  0  0  0  0
 17 21  1  0  0  0  0
 11 14  1  0  0  0  0
  1 11  1  0  0  0  0
 25 26  1  0  0  0  0
 25 27  1  0  0  0  0
 28 31  2  0  0  0  0
 31 32  1  0  0  0  0
 29 32  2  0  0  0  0
 29 33  1  0  0  0  0
 30 33  2  0  0  0  0
 28 30  1  0  0  0  0
 32 36  1  0  0  0  0
 33 37  1  0  0  0  0
 29 38  1  0  0  0  0
 30 34  1  0  0  0  0
 31 35  1  0  0  0  0
 25 28  1  0  0  0  0
  1 25  1  0  0  0  0
 39 40  1  0  0  0  0
 39 43  1  0  0  0  0
 40 41  1  0  0  0  0
 41 44  1  0  0  0  0
 41 45  1  0  0  0  0
 41 42  1  0  0  0  0
 42 43  1  0  0  0  0
 46 49  2  0  0  0  0
 49 50  1  0  0  0  0
 47 50  2  0  0  0  0
 47 51  1  0  0  0  0
 48 51  2  0  0  0  0
 46 48  1  0  0  0  0
 50 52  1  0  0  0  0
 51 53  1  0  0  0  0
 43 46  1  0  0  0  0
 54 55  1  0  0  0  0
 54 56  1  0  0  0  0
 54 57  1  0  0  0  0
 40 54  1  0  0  0  0
 58 59  1  0  0  0  0
 58 60  1  0  0  0  0
 58 61  1  0  0  0  0
 40 58  1  0  0  0  0
 62 63  1  0  0  0  0
 62 64  1  0  0  0  0
 62 65  1  0  0  0  0
 42 62  1  0  0  0  0
 66 67  1  0  0  0  0
 66 68  1  0  0  0  0
 66 69  1  0  0  0  0
 42 66  1  0  0  0  0
 70 71  1  0  0  0  0
 70 72  1  0  0  0  0
 70 73  1  0  0  0  0
 48 70  1  0  0  0  0
 74 75  1  0  0  0  0
 74 76  1  0  0  0  0
 74 77  1  0  0  0  0
 49 74  1  0  0  0  0
 78 79  1  0  0  0  0
 78 80  1  0  0  0  0
 78 81  1  0  0  0  0
 47 78  1  0  0  0  0
  1 39  1  0  0  0  0
M  END
>  <DFT-ENERGY>
-1470.43977714

$$$$
