
  CDK     07282405163D

 87 91  0  0  0  0  0  0  0  0999 V2000
    0.7563    2.0307   -3.4042 C   0  0  0  0  0  0  0  0  0  0  0  0
   -0.2992    2.3359   -3.3126 H   0  0  0  0  0  0  0  0  0  0  0  0
    1.1351    2.3737   -4.3927 H   0  0  0  0  0  0  0  0  0  0  0  0
    1.3462    2.5760   -2.6383 H   0  0  0  0  0  0  0  0  0  0  0  0
    0.9364    0.5342   -3.3003 C   0  0  0  0  0  0  0  0  0  0  0  0
    1.9621    0.1872   -3.5135 H   0  0  0  0  0  0  0  0  0  0  0  0
   -0.0892   -0.4085   -3.5706 C   0  0  0  0  0  0  0  0  0  0  0  0
   -1.1213   -0.0248   -3.6358 H   0  0  0  0  0  0  0  0  0  0  0  0
    0.1923   -1.6793   -4.3366 C   0  0  0  0  0  0  0  0  0  0  0  0
   -0.6050   -2.4357   -4.2122 H   0  0  0  0  0  0  0  0  0  0  0  0
    0.2382   -1.4216   -5.4174 H   0  0  0  0  0  0  0  0  0  0  0  0
    1.1653   -2.1313   -4.0640 H   0  0  0  0  0  0  0  0  0  0  0  0
   -0.5104   -1.5551   -1.5974 C   0  0  0  0  0  0  0  0  0  0  0  0
   -0.0186   -2.5351   -1.8054 H   0  0  0  0  0  0  0  0  0  0  0  0
   -1.6224   -1.5576   -1.6689 H   0  0  0  0  0  0  0  0  0  0  0  0
    0.4610   -0.0602   -1.1567 Ru  0  0  0  0  0  0  0  0  0  0  0  0
    2.2817   -1.3597   -1.4343 C   0  0  0  0  0  0  0  0  0  0  0  0
    2.0598   -2.3150   -0.9232 H   0  0  0  0  0  0  0  0  0  0  0  0
    2.3127   -1.5696   -2.5225 H   0  0  0  0  0  0  0  0  0  0  0  0
    3.5905   -0.8217   -0.9975 C   0  0  0  0  0  0  0  0  0  0  0  0
    6.0640    0.3230   -0.1058 C   0  0  0  0  0  0  0  0  0  0  0  0
    4.1466   -1.1321    0.2712 C   0  0  0  0  0  0  0  0  0  0  0  0
    4.3487    0.0554   -1.8163 C   0  0  0  0  0  0  0  0  0  0  0  0
    5.5528    0.6219   -1.3803 C   0  0  0  0  0  0  0  0  0  0  0  0
    5.3531   -0.5719    0.7114 C   0  0  0  0  0  0  0  0  0  0  0  0
    3.6156   -1.8399    0.9252 H   0  0  0  0  0  0  0  0  0  0  0  0
    3.9752    0.3006   -2.8228 H   0  0  0  0  0  0  0  0  0  0  0  0
    6.1044    1.3028   -2.0465 H   0  0  0  0  0  0  0  0  0  0  0  0
    5.7473   -0.8427    1.7032 H   0  0  0  0  0  0  0  0  0  0  0  0
    7.0094    0.7667    0.2375 H   0  0  0  0  0  0  0  0  0  0  0  0
   -1.4791    1.2420   -1.0757 C   0  0  0  0  0  0  0  0  0  0  0  0
   -1.7415    1.2151   -0.0068 H   0  0  0  0  0  0  0  0  0  0  0  0
   -1.1546    2.2725   -1.3292 H   0  0  0  0  0  0  0  0  0  0  0  0
   -2.6343    0.8249   -1.8893 C   0  0  0  0  0  0  0  0  0  0  0  0
   -4.8296   -0.0859   -3.5016 C   0  0  0  0  0  0  0  0  0  0  0  0
   -3.4665   -0.2581   -1.4874 C   0  0  0  0  0  0  0  0  0  0  0  0
   -2.9684    1.4429   -3.1256 C   0  0  0  0  0  0  0  0  0  0  0  0
   -4.0376    0.9980   -3.9152 C   0  0  0  0  0  0  0  0  0  0  0  0
   -4.5374   -0.7023   -2.2742 C   0  0  0  0  0  0  0  0  0  0  0  0
   -3.2634   -0.7527   -0.5263 H   0  0  0  0  0  0  0  0  0  0  0  0
   -2.3859    2.3164   -3.4589 H   0  0  0  0  0  0  0  0  0  0  0  0
   -4.2626    1.5136   -4.8615 H   0  0  0  0  0  0  0  0  0  0  0  0
   -5.1549   -1.5425   -1.9198 H   0  0  0  0  0  0  0  0  0  0  0  0
   -5.6692   -0.4346   -4.1198 H   0  0  0  0  0  0  0  0  0  0  0  0
    0.6770    0.2256    0.7488 C   0  0  0  0  0  0  0  0  0  0  0  0
    1.4045    1.4802    1.2875 C   0  0  0  0  0  0  0  0  0  0  0  0
    1.8888    0.9876    2.6696 C   0  0  0  0  0  0  0  0  0  0  0  0
    0.8696   -0.0724    3.1468 C   0  0  0  0  0  0  0  0  0  0  0  0
    0.2323   -0.4712    1.8292 N   0  0  0  0  0  0  0  0  0  0  0  0
    2.8834    0.5147    2.5476 H   0  0  0  0  0  0  0  0  0  0  0  0
    1.9899    1.8161    3.3978 H   0  0  0  0  0  0  0  0  0  0  0  0
   -0.7572   -1.5211    1.7380 C   0  0  0  0  0  0  0  0  0  0  0  0
   -2.7245   -3.5569    1.4615 C   0  0  0  0  0  0  0  0  0  0  0  0
   -2.1344   -1.2032    1.8857 C   0  0  0  0  0  0  0  0  0  0  0  0
   -0.3663   -2.8549    1.4608 C   0  0  0  0  0  0  0  0  0  0  0  0
   -1.3593   -3.8425    1.3253 C   0  0  0  0  0  0  0  0  0  0  0  0
   -3.0839   -2.2311    1.7495 C   0  0  0  0  0  0  0  0  0  0  0  0
   -1.0438   -4.8728    1.0964 H   0  0  0  0  0  0  0  0  0  0  0  0
   -4.1496   -1.9728    1.8571 H   0  0  0  0  0  0  0  0  0  0  0  0
    2.5511    1.9858    0.4063 C   0  0  0  0  0  0  0  0  0  0  0  0
    2.1996    2.1912   -0.6276 H   0  0  0  0  0  0  0  0  0  0  0  0
    3.3830    1.2672    0.3460 H   0  0  0  0  0  0  0  0  0  0  0  0
    2.9394    2.9435    0.8088 H   0  0  0  0  0  0  0  0  0  0  0  0
    0.3783    2.6293    1.4214 C   0  0  0  0  0  0  0  0  0  0  0  0
   -0.5233    2.3432    1.9927 H   0  0  0  0  0  0  0  0  0  0  0  0
    0.0431    2.9762    0.4261 H   0  0  0  0  0  0  0  0  0  0  0  0
    0.8573    3.4819    1.9452 H   0  0  0  0  0  0  0  0  0  0  0  0
    1.5744   -1.2746    3.7891 C   0  0  0  0  0  0  0  0  0  0  0  0
    2.3651   -1.6786    3.1320 H   0  0  0  0  0  0  0  0  0  0  0  0
    0.8564   -2.0842    4.0281 H   0  0  0  0  0  0  0  0  0  0  0  0
    2.0493   -0.9508    4.7368 H   0  0  0  0  0  0  0  0  0  0  0  0
   -0.1536    0.4743    4.1542 C   0  0  0  0  0  0  0  0  0  0  0  0
    0.3678    0.7106    5.1029 H   0  0  0  0  0  0  0  0  0  0  0  0
   -0.9295   -0.2835    4.3783 H   0  0  0  0  0  0  0  0  0  0  0  0
   -0.6497    1.3957    3.8033 H   0  0  0  0  0  0  0  0  0  0  0  0
   -2.6541    0.1828    2.1743 C   0  0  0  0  0  0  0  0  0  0  0  0
   -3.5165    0.4139    1.5191 H   0  0  0  0  0  0  0  0  0  0  0  0
   -1.8914    0.9590    2.0107 H   0  0  0  0  0  0  0  0  0  0  0  0
   -3.0052    0.2655    3.2232 H   0  0  0  0  0  0  0  0  0  0  0  0
    1.0705   -3.2691    1.3023 C   0  0  0  0  0  0  0  0  0  0  0  0
    1.7244   -2.4015    1.1307 H   0  0  0  0  0  0  0  0  0  0  0  0
    1.1840   -3.9565    0.4416 H   0  0  0  0  0  0  0  0  0  0  0  0
    1.4312   -3.8092    2.2020 H   0  0  0  0  0  0  0  0  0  0  0  0
   -3.7767   -4.6206    1.2777 C   0  0  0  0  0  0  0  0  0  0  0  0
   -3.3301   -5.6315    1.2203 H   0  0  0  0  0  0  0  0  0  0  0  0
   -4.3502   -4.4523    0.3417 H   0  0  0  0  0  0  0  0  0  0  0  0
   -4.5098   -4.6136    2.1096 H   0  0  0  0  0  0  0  0  0  0  0  0
  1  2  1  0  0  0  0
  1  5  1  0  0  0  0
  1  3  1  0  0  0  0
  1  4  1  0  0  0  0
  5  6  1  0  0  0  0
  5 16  1  0  0  0  0
  5  7  1  0  0  0  0
  7  9  1  0  0  0  0
  7  8  1  0  0  0  0
  9 10  1  0  0  0  0
  9 11  1  0  0  0  0
  9 12  1  0  0  0  0
 13 14  1  0  0  0  0
 13 15  1  0  0  0  0
  7 13  1  0  0  0  0
 13 16  1  0  0  0  0
 17 18  1  0  0  0  0
 17 19  1  0  0  0  0
 20 23  2  0  0  0  0
 23 24  1  0  0  0  0
 21 24  2  0  0  0  0
 21 25  1  0  0  0  0
 22 25  2  0  0  0  0
 20 22  1  0  0  0  0
 24 28  1  0  0  0  0
 25 29  1  0  0  0  0
 21 30  1  0  0  0  0
 22 26  1  0  0  0  0
 23 27  1  0  0  0  0
 17 20  1  0  0  0  0
 16 17  1  0  0  0  0
 31 32  1  0  0  0  0
 31 33  1  0  0  0  0
 34 37  2  0  0  0  0
 37 38  1  0  0  0  0
 35 38  2  0  0  0  0
 35 39  1  0  0  0  0
 36 39  2  0  0  0  0
 34 36  1  0  0  0  0
 38 42  1  0  0  0  0
 39 43  1  0  0  0  0
 35 44  1  0  0  0  0
 36 40  1  0  0  0  0
 37 41  1  0  0  0  0
 31 34  1  0  0  0  0
 16 31  1  0  0  0  0
 45 46  1  0  0  0  0
 45 49  1  0  0  0  0
 46 47  1  0  0  0  0
 47 50  1  0  0  0  0
 47 51  1  0  0  0  0
 47 48  1  0  0  0  0
 48 49  1  0  0  0  0
 52 55  2  0  0  0  0
 55 56  1  0  0  0  0
 53 56  2  0  0  0  0
 53 57  1  0  0  0  0
 54 57  2  0  0  0  0
 52 54  1  0  0  0  0
 56 58  1  0  0  0  0
 57 59  1  0  0  0  0
 49 52  1  0  0  0  0
 60 61  1  0  0  0  0
 60 62  1  0  0  0  0
 60 63  1  0  0  0  0
 46 60  1  0  0  0  0
 64 65  1  0  0  0  0
 64 66  1  0  0  0  0
 64 67  1  0  0  0  0
 46 64  1  0  0  0  0
 68 69  1  0  0  0  0
 68 70  1  0  0  0  0
 68 71  1  0  0  0  0
 48 68  1  0  0  0  0
 72 73  1  0  0  0  0
 72 74  1  0  0  0  0
 72 75  1  0  0  0  0
 48 72  1  0  0  0  0
 76 77  1  0  0  0  0
 76 78  1  0  0  0  0
 76 79  1  0  0  0  0
 54 76  1  0  0  0  0
 80 81  1  0  0  0  0
 80 82  1  0  0  0  0
 80 83  1  0  0  0  0
 55 80  1  0  0  0  0
 84 85  1  0  0  0  0
 84 86  1  0  0  0  0
 84 87  1  0  0  0  0
 53 84  1  0  0  0  0
 16 45  1  0  0  0  0
M  END
>  <DFT-ENERGY>
-1548.94627628

$$$$
