
  CDK     07282415593D

 81 86  0  0  0  0  0  0  0  0999 V2000
   -0.6816   -3.0186   -1.8524 H   0  0  0  0  0  0  0  0  0  0  0  0
    0.5284   -3.1062   -2.0580 C   0  0  0  0  0  0  0  0  0  0  0  0
    0.3129   -3.6032   -3.0290 H   0  0  0  0  0  0  0  0  0  0  0  0
    0.9505   -1.6927   -1.9524 C   0  0  0  0  0  0  0  0  0  0  0  0
    1.9934   -1.5003   -1.6645 H   0  0  0  0  0  0  0  0  0  0  0  0
    0.5532   -0.9922   -2.7040 H   0  0  0  0  0  0  0  0  0  0  0  0
   -0.3597   -2.1318   -0.3502 Ru  0  0  0  0  0  0  0  0  0  0  0  0
    0.9196   -3.8058   -0.8156 C   0  0  0  0  0  0  0  0  0  0  0  0
    1.9655   -3.6929   -0.4960 H   0  0  0  0  0  0  0  0  0  0  0  0
    0.4966   -4.8146   -0.6576 H   0  0  0  0  0  0  0  0  0  0  0  0
    1.3213   -1.8073    1.0743 C   0  0  0  0  0  0  0  0  0  0  0  0
    0.8987   -1.1507    1.8417 H   0  0  0  0  0  0  0  0  0  0  0  0
    1.5542   -2.7800    1.5506 H   0  0  0  0  0  0  0  0  0  0  0  0
    2.5404   -1.1586    0.5327 C   0  0  0  0  0  0  0  0  0  0  0  0
    4.8611    0.1319   -0.5020 C   0  0  0  0  0  0  0  0  0  0  0  0
    2.5180    0.2094    0.1586 C   0  0  0  0  0  0  0  0  0  0  0  0
    3.7591   -1.8565    0.3691 C   0  0  0  0  0  0  0  0  0  0  0  0
    4.9031   -1.2229   -0.1433 C   0  0  0  0  0  0  0  0  0  0  0  0
    3.6576    0.8438   -0.3455 C   0  0  0  0  0  0  0  0  0  0  0  0
    1.5732    0.7634    0.2470 H   0  0  0  0  0  0  0  0  0  0  0  0
    3.8122   -2.9150    0.6691 H   0  0  0  0  0  0  0  0  0  0  0  0
    5.8370   -1.7941   -0.2572 H   0  0  0  0  0  0  0  0  0  0  0  0
    3.6061    1.9065   -0.6297 H   0  0  0  0  0  0  0  0  0  0  0  0
    5.7561    0.6302   -0.9020 H   0  0  0  0  0  0  0  0  0  0  0  0
   -1.9533   -1.1303   -1.5416 C   0  0  0  0  0  0  0  0  0  0  0  0
   -2.8918   -1.0964   -0.9542 H   0  0  0  0  0  0  0  0  0  0  0  0
   -1.5588   -0.1035   -1.6442 H   0  0  0  0  0  0  0  0  0  0  0  0
   -2.2243   -1.7285   -2.8800 C   0  0  0  0  0  0  0  0  0  0  0  0
   -2.6889   -2.9227   -5.4361 C   0  0  0  0  0  0  0  0  0  0  0  0
   -3.0425   -2.8791   -3.0265 C   0  0  0  0  0  0  0  0  0  0  0  0
   -1.6646   -1.1898   -4.0642 C   0  0  0  0  0  0  0  0  0  0  0  0
   -1.8868   -1.7788   -5.3188 C   0  0  0  0  0  0  0  0  0  0  0  0
   -3.2721   -3.4641   -4.2766 C   0  0  0  0  0  0  0  0  0  0  0  0
   -3.5018   -3.3220   -2.1293 H   0  0  0  0  0  0  0  0  0  0  0  0
   -1.0606   -0.2718   -3.9974 H   0  0  0  0  0  0  0  0  0  0  0  0
   -1.4342   -1.3292   -6.2157 H   0  0  0  0  0  0  0  0  0  0  0  0
   -3.9157   -4.3540   -4.3492 H   0  0  0  0  0  0  0  0  0  0  0  0
   -2.8662   -3.3837   -6.4183 H   0  0  0  0  0  0  0  0  0  0  0  0
   -1.3653   -1.4441    1.2119 C   0  0  0  0  0  0  0  0  0  0  0  0
   -2.2254   -2.5754    1.8417 C   0  0  0  0  0  0  0  0  0  0  0  0
   -3.3301   -1.7842    2.5781 C   0  0  0  0  0  0  0  0  0  0  0  0
   -2.7358   -0.4104    2.9405 C   0  0  0  0  0  0  0  0  0  0  0  0
   -1.5738   -0.3331    1.9557 N   0  0  0  0  0  0  0  0  0  0  0  0
   -4.1884   -1.6425    1.8911 H   0  0  0  0  0  0  0  0  0  0  0  0
   -3.7019   -2.3215    3.4724 H   0  0  0  0  0  0  0  0  0  0  0  0
   -0.7888    0.8818    1.8531 C   0  0  0  0  0  0  0  0  0  0  0  0
    0.7889    3.2385    1.6274 C   0  0  0  0  0  0  0  0  0  0  0  0
    0.3142    1.0879    2.7286 C   0  0  0  0  0  0  0  0  0  0  0  0
   -1.1236    1.8714    0.8936 C   0  0  0  0  0  0  0  0  0  0  0  0
   -0.3166    3.0203    0.7946 C   0  0  0  0  0  0  0  0  0  0  0  0
    1.0709    2.2644    2.5957 C   0  0  0  0  0  0  0  0  0  0  0  0
   -0.5731    3.7724    0.0318 H   0  0  0  0  0  0  0  0  0  0  0  0
    1.9380    2.4014    3.2607 H   0  0  0  0  0  0  0  0  0  0  0  0
   -2.8333   -3.5641    0.8346 C   0  0  0  0  0  0  0  0  0  0  0  0
   -2.0372   -4.0697    0.2479 H   0  0  0  0  0  0  0  0  0  0  0  0
   -3.5064   -3.0521    0.1223 H   0  0  0  0  0  0  0  0  0  0  0  0
   -3.4174   -4.3394    1.3739 H   0  0  0  0  0  0  0  0  0  0  0  0
   -1.3312   -3.3690    2.8230 C   0  0  0  0  0  0  0  0  0  0  0  0
   -0.7872   -2.7110    3.5269 H   0  0  0  0  0  0  0  0  0  0  0  0
   -0.5739   -3.9499    2.2626 H   0  0  0  0  0  0  0  0  0  0  0  0
   -1.9534   -4.0697    3.4178 H   0  0  0  0  0  0  0  0  0  0  0  0
   -3.7350    0.7245    2.6827 C   0  0  0  0  0  0  0  0  0  0  0  0
   -4.1510    0.6779    1.6605 H   0  0  0  0  0  0  0  0  0  0  0  0
   -3.2675    1.7177    2.8334 H   0  0  0  0  0  0  0  0  0  0  0  0
   -4.5755    0.6323    3.3992 H   0  0  0  0  0  0  0  0  0  0  0  0
   -2.2868   -0.3232    4.4067 C   0  0  0  0  0  0  0  0  0  0  0  0
   -3.1853   -0.3704    5.0535 H   0  0  0  0  0  0  0  0  0  0  0  0
   -1.7779    0.6377    4.6123 H   0  0  0  0  0  0  0  0  0  0  0  0
   -1.6180   -1.1514    4.6987 H   0  0  0  0  0  0  0  0  0  0  0  0
    0.7717    0.1138    3.7906 C   0  0  0  0  0  0  0  0  0  0  0  0
    0.6007    0.5286    4.8052 H   0  0  0  0  0  0  0  0  0  0  0  0
    1.8592   -0.0678    3.6854 H   0  0  0  0  0  0  0  0  0  0  0  0
    0.2652   -0.8618    3.7322 H   0  0  0  0  0  0  0  0  0  0  0  0
   -2.3250    1.7942   -0.0124 C   0  0  0  0  0  0  0  0  0  0  0  0
   -2.0441    2.0491   -1.0527 H   0  0  0  0  0  0  0  0  0  0  0  0
   -3.0915    2.5310    0.3060 H   0  0  0  0  0  0  0  0  0  0  0  0
   -2.7887    0.7972   -0.0261 H   0  0  0  0  0  0  0  0  0  0  0  0
    1.6724    4.4490    1.4687 C   0  0  0  0  0  0  0  0  0  0  0  0
    1.8929    4.9229    2.4463 H   0  0  0  0  0  0  0  0  0  0  0  0
    1.2109    5.2098    0.8106 H   0  0  0  0  0  0  0  0  0  0  0  0
    2.6483    4.1631    1.0217 H   0  0  0  0  0  0  0  0  0  0  0  0
  1  2  1  0  0  0  0
  1  7  1  0  0  0  0
  2  3  1  0  0  0  0
  2  4  1  0  0  0  0
  4  5  1  0  0  0  0
  4  6  1  0  0  0  0
  7  8  1  0  0  0  0
  4  7  1  0  0  0  0
  2  8  1  0  0  0  0
  8  9  1  0  0  0  0
  8 10  1  0  0  0  0
 11 12  1  0  0  0  0
 11 13  1  0  0  0  0
 14 17  2  0  0  0  0
 17 18  1  0  0  0  0
 15 18  2  0  0  0  0
 15 19  1  0  0  0  0
 16 19  2  0  0  0  0
 14 16  1  0  0  0  0
 18 22  1  0  0  0  0
 19 23  1  0  0  0  0
 15 24  1  0  0  0  0
 16 20  1  0  0  0  0
 17 21  1  0  0  0  0
 11 14  1  0  0  0  0
  7 11  1  0  0  0  0
 25 26  1  0  0  0  0
 25 27  1  0  0  0  0
 28 31  2  0  0  0  0
 31 32  1  0  0  0  0
 29 32  2  0  0  0  0
 29 33  1  0  0  0  0
 30 33  2  0  0  0  0
 28 30  1  0  0  0  0
 32 36  1  0  0  0  0
 33 37  1  0  0  0  0
 29 38  1  0  0  0  0
 30 34  1  0  0  0  0
 31 35  1  0  0  0  0
 25 28  1  0  0  0  0
  7 25  1  0  0  0  0
 39 40  1  0  0  0  0
 39 43  1  0  0  0  0
 40 41  1  0  0  0  0
 41 44  1  0  0  0  0
 41 45  1  0  0  0  0
 41 42  1  0  0  0  0
 42 43  1  0  0  0  0
 46 49  2  0  0  0  0
 49 50  1  0  0  0  0
 47 50  2  0  0  0  0
 47 51  1  0  0  0  0
 48 51  2  0  0  0  0
 46 48  1  0  0  0  0
 50 52  1  0  0  0  0
 51 53  1  0  0  0  0
 43 46  1  0  0  0  0
 54 55  1  0  0  0  0
 54 56  1  0  0  0  0
 54 57  1  0  0  0  0
 40 54  1  0  0  0  0
 58 59  1  0  0  0  0
 58 60  1  0  0  0  0
 58 61  1  0  0  0  0
 40 58  1  0  0  0  0
 62 63  1  0  0  0  0
 62 64  1  0  0  0  0
 62 65  1  0  0  0  0
 42 62  1  0  0  0  0
 66 67  1  0  0  0  0
 66 68  1  0  0  0  0
 66 69  1  0  0  0  0
 42 66  1  0  0  0  0
 70 71  1  0  0  0  0
 70 72  1  0  0  0  0
 70 73  1  0  0  0  0
 48 70  1  0  0  0  0
 74 75  1  0  0  0  0
 74 76  1  0  0  0  0
 74 77  1  0  0  0  0
 49 74  1  0  0  0  0
 78 79  1  0  0  0  0
 78 80  1  0  0  0  0
 78 81  1  0  0  0  0
 47 78  1  0  0  0  0
  7 39  1  0  0  0  0
M  END
>  <DFT-ENERGY>
-1470.40435999

$$$$
