
  CDK     08132409523D

 43 47  0  0  0  0  0  0  0  0999 V2000
    0.3614   -0.8591   -3.0649 H   0  0  0  0  0  0  0  0  0  0  0  0
    1.5668   -0.6276   -3.1508 C   0  0  0  0  0  0  0  0  0  0  0  0
    1.4772   -0.6942   -4.2576 H   0  0  0  0  0  0  0  0  0  0  0  0
    1.6459    0.6653   -2.4033 C   0  0  0  0  0  0  0  0  0  0  0  0
    2.6008    0.9130   -1.9113 H   0  0  0  0  0  0  0  0  0  0  0  0
    1.1189    1.5197   -2.8634 H   0  0  0  0  0  0  0  0  0  0  0  0
    0.4846   -0.6398   -1.3090 Ru  0  0  0  0  0  0  0  0  0  0  0  0
    2.0358   -1.7439   -2.3196 C   0  0  0  0  0  0  0  0  0  0  0  0
    2.9765   -1.6434   -1.7644 H   0  0  0  0  0  0  0  0  0  0  0  0
    1.7642   -2.7659   -2.6368 H   0  0  0  0  0  0  0  0  0  0  0  0
    2.2506   -0.6862    0.3893 Cl  0  0  0  0  0  0  0  0  0  0  0  0
   -1.6120   -0.0879   -2.3244 Cl  0  0  0  0  0  0  0  0  0  0  0  0
   -0.3899   -0.0078    0.4183 C   0  0  0  0  0  0  0  0  0  0  0  0
   -0.9306    1.2170    0.6320 N   0  0  0  0  0  0  0  0  0  0  0  0
   -1.7772    1.2567    1.8440 C   0  0  0  0  0  0  0  0  0  0  0  0
   -1.2744    0.0304    2.6072 C   0  0  0  0  0  0  0  0  0  0  0  0
   -0.6719   -0.7737    1.5181 N   0  0  0  0  0  0  0  0  0  0  0  0
   -1.6169    2.2018    2.3944 H   0  0  0  0  0  0  0  0  0  0  0  0
   -2.8444    1.1793    1.5523 H   0  0  0  0  0  0  0  0  0  0  0  0
   -2.0819   -0.5370    3.1045 H   0  0  0  0  0  0  0  0  0  0  0  0
   -0.4998    0.2924    3.3534 H   0  0  0  0  0  0  0  0  0  0  0  0
   -0.2367   -2.1006    1.7008 C   0  0  0  0  0  0  0  0  0  0  0  0
    0.6054   -4.7953    2.0377 C   0  0  0  0  0  0  0  0  0  0  0  0
   -0.3496   -3.0609    0.6768 C   0  0  0  0  0  0  0  0  0  0  0  0
    0.3265   -2.5621    2.9081 C   0  0  0  0  0  0  0  0  0  0  0  0
    0.7300   -3.8845    3.0945 C   0  0  0  0  0  0  0  0  0  0  0  0
    0.0659   -4.3818    0.8116 C   0  0  0  0  0  0  0  0  0  0  0  0
    1.1630   -4.1678    4.0622 H   0  0  0  0  0  0  0  0  0  0  0  0
   -0.0472   -5.0636   -0.0404 H   0  0  0  0  0  0  0  0  0  0  0  0
   -0.8524    2.3183   -0.2523 C   0  0  0  0  0  0  0  0  0  0  0  0
   -0.7223    4.5578   -1.9615 C   0  0  0  0  0  0  0  0  0  0  0  0
   -2.0059    2.8446   -0.8624 C   0  0  0  0  0  0  0  0  0  0  0  0
    0.3670    2.9749   -0.5029 C   0  0  0  0  0  0  0  0  0  0  0  0
    0.4492    4.0737   -1.3628 C   0  0  0  0  0  0  0  0  0  0  0  0
   -1.9617    3.9519   -1.7092 C   0  0  0  0  0  0  0  0  0  0  0  0
    1.4284    4.5385   -1.5342 H   0  0  0  0  0  0  0  0  0  0  0  0
   -2.8920    4.3084   -2.1687 H   0  0  0  0  0  0  0  0  0  0  0  0
    0.9364   -5.8341    2.1682 H   0  0  0  0  0  0  0  0  0  0  0  0
   -0.6695    5.4244   -2.6347 H   0  0  0  0  0  0  0  0  0  0  0  0
    0.4926   -1.6843    3.9301 F   0  0  0  0  0  0  0  0  0  0  0  0
   -0.8895   -2.6616   -0.5127 F   0  0  0  0  0  0  0  0  0  0  0  0
    1.4796    2.5237    0.1033 F   0  0  0  0  0  0  0  0  0  0  0  0
   -3.1918    2.2474   -0.6046 F   0  0  0  0  0  0  0  0  0  0  0  0
  1  2  1  0  0  0  0
  1  7  1  0  0  0  0
  2  3  1  0  0  0  0
  2  4  1  0  0  0  0
  4  5  1  0  0  0  0
  6  4  1  0  0  0  0
  7  8  1  0  0  0  0
  7  4  1  0  0  0  0
  8  2  1  0  0  0  0
  8  9  1  0  0  0  0
 10  8  1  0  0  0  0
  7 11  1  0  0  0  0
  7 12  1  0  0  0  0
 13 14  1  0  0  0  0
 13 17  1  0  0  0  0
 14 15  1  0  0  0  0
 15 18  1  0  0  0  0
 15 19  1  0  0  0  0
 15 16  1  0  0  0  0
 16 20  1  0  0  0  0
 16 21  1  0  0  0  0
 16 17  1  0  0  0  0
 22 25  2  0  0  0  0
 25 26  1  0  0  0  0
 23 26  2  0  0  0  0
 23 27  1  0  0  0  0
 24 27  2  0  0  0  0
 22 24  1  0  0  0  0
 26 28  1  0  0  0  0
 27 29  1  0  0  0  0
 17 22  1  0  0  0  0
 30 33  2  0  0  0  0
 33 34  1  0  0  0  0
 31 34  2  0  0  0  0
 31 35  1  0  0  0  0
 32 35  2  0  0  0  0
 30 32  1  0  0  0  0
 34 36  1  0  0  0  0
 35 37  1  0  0  0  0
 14 30  1  0  0  0  0
 23 38  1  0  0  0  0
 31 39  1  0  0  0  0
 25 40  1  0  0  0  0
 24 41  1  0  0  0  0
 33 42  1  0  0  0  0
 32 43  1  0  0  0  0
  7 13  1  0  0  0  0
M  END
>  <DFT-ENERGY>
-2217.89029243

$$$$
