
  CDK     08152404223D

 73 75  0  0  0  0  0  0  0  0999 V2000
   -1.7409   -0.5924   -1.3854 Ru  0  0  0  0  0  0  0  0  0  0  0  0
   -3.3315    0.5499   -1.2178 C   0  0  0  0  0  0  0  0  0  0  0  0
   -3.2170    1.5608   -1.6472 H   0  0  0  0  0  0  0  0  0  0  0  0
   -3.8557   -0.5201   -2.2569 C   0  0  0  0  0  0  0  0  0  0  0  0
   -4.1168    0.0331   -3.1776 H   0  0  0  0  0  0  0  0  0  0  0  0
   -2.8249   -1.6342   -2.6771 C   0  0  0  0  0  0  0  0  0  0  0  0
   -3.1080   -2.6422   -2.3275 H   0  0  0  0  0  0  0  0  0  0  0  0
   -2.5045   -1.5562   -3.7305 H   0  0  0  0  0  0  0  0  0  0  0  0
   -4.7091   -1.0352   -1.7800 H   0  0  0  0  0  0  0  0  0  0  0  0
   -3.8501    0.5067   -0.2457 H   0  0  0  0  0  0  0  0  0  0  0  0
   -1.0790    0.7153   -3.2667 Cl  0  0  0  0  0  0  0  0  0  0  0  0
   -2.6011   -2.0876    0.3029 Cl  0  0  0  0  0  0  0  0  0  0  0  0
   -0.0100   -0.7681   -0.4846 C   0  0  0  0  0  0  0  0  0  0  0  0
    2.0004   -2.2602    0.0482 C   0  0  0  0  0  0  0  0  0  0  0  0
    1.3204   -0.4182    1.6165 C   0  0  0  0  0  0  0  0  0  0  0  0
    2.4865   -1.0571    0.8444 C   0  0  0  0  0  0  0  0  0  0  0  0
    0.2663   -0.0019    0.5844 N   0  0  0  0  0  0  0  0  0  0  0  0
    0.9684   -1.8400   -1.0144 C   0  0  0  0  0  0  0  0  0  0  0  0
    1.5480   -3.0085    0.7280 H   0  0  0  0  0  0  0  0  0  0  0  0
    2.9512   -0.3068    0.1723 H   0  0  0  0  0  0  0  0  0  0  0  0
    2.8501   -2.7685   -0.4435 H   0  0  0  0  0  0  0  0  0  0  0  0
    3.2615   -1.3539    1.5799 H   0  0  0  0  0  0  0  0  0  0  0  0
    0.1415   -3.0683   -1.4822 C   0  0  0  0  0  0  0  0  0  0  0  0
    1.6793   -1.1396   -2.2336 C   0  0  0  0  0  0  0  0  0  0  0  0
    1.8014    0.7865    2.4271 C   0  0  0  0  0  0  0  0  0  0  0  0
    2.3494    1.5222    1.8141 H   0  0  0  0  0  0  0  0  0  0  0  0
    2.4862    0.4170    3.2157 H   0  0  0  0  0  0  0  0  0  0  0  0
    0.9660    1.3133    2.9219 H   0  0  0  0  0  0  0  0  0  0  0  0
    0.7290   -1.4801    2.5749 C   0  0  0  0  0  0  0  0  0  0  0  0
    0.1742   -1.0192    3.4065 H   0  0  0  0  0  0  0  0  0  0  0  0
    1.5599   -2.0654    3.0184 H   0  0  0  0  0  0  0  0  0  0  0  0
    0.0467   -2.1753    2.0512 H   0  0  0  0  0  0  0  0  0  0  0  0
   -0.5036    1.2418    0.7643 C   0  0  0  0  0  0  0  0  0  0  0  0
   -1.8046    3.7193    1.1364 C   0  0  0  0  0  0  0  0  0  0  0  0
   -1.5410    1.3574    1.7389 C   0  0  0  0  0  0  0  0  0  0  0  0
   -0.1332    2.3692   -0.0425 C   0  0  0  0  0  0  0  0  0  0  0  0
   -0.8004    3.5876    0.1762 C   0  0  0  0  0  0  0  0  0  0  0  0
   -2.1695    2.6093    1.8937 C   0  0  0  0  0  0  0  0  0  0  0  0
   -0.5241    4.4570   -0.4322 H   0  0  0  0  0  0  0  0  0  0  0  0
   -2.9683    2.7053    2.6418 H   0  0  0  0  0  0  0  0  0  0  0  0
   -2.3063    4.6863    1.2867 H   0  0  0  0  0  0  0  0  0  0  0  0
    0.9205    2.3410   -1.1499 C   0  0  0  0  0  0  0  0  0  0  0  0
    0.8304    1.3569   -1.6434 H   0  0  0  0  0  0  0  0  0  0  0  0
   -2.0262    0.2551    2.6762 C   0  0  0  0  0  0  0  0  0  0  0  0
   -1.6002   -0.7024    2.3332 H   0  0  0  0  0  0  0  0  0  0  0  0
   -1.5926    0.5460    4.1280 C   0  0  0  0  0  0  0  0  0  0  0  0
   -1.8617   -0.3036    4.7886 H   0  0  0  0  0  0  0  0  0  0  0  0
   -2.1091    1.4477    4.5170 H   0  0  0  0  0  0  0  0  0  0  0  0
   -0.5054    0.7282    4.2311 H   0  0  0  0  0  0  0  0  0  0  0  0
   -3.5556    0.0817    2.6527 C   0  0  0  0  0  0  0  0  0  0  0  0
   -4.0849    0.9823    3.0254 H   0  0  0  0  0  0  0  0  0  0  0  0
   -3.8378   -0.7648    3.3107 H   0  0  0  0  0  0  0  0  0  0  0  0
   -3.9173   -0.1656    1.6395 H   0  0  0  0  0  0  0  0  0  0  0  0
    2.3606    2.5182   -0.6396 C   0  0  0  0  0  0  0  0  0  0  0  0
    3.0550    2.6029   -1.5004 H   0  0  0  0  0  0  0  0  0  0  0  0
    2.7050    1.6668   -0.0263 H   0  0  0  0  0  0  0  0  0  0  0  0
    2.4609    3.4418   -0.0323 H   0  0  0  0  0  0  0  0  0  0  0  0
    0.6617    3.3809   -2.2528 C   0  0  0  0  0  0  0  0  0  0  0  0
    0.9120    4.4115   -1.9236 H   0  0  0  0  0  0  0  0  0  0  0  0
   -0.3865    3.3504   -2.6016 H   0  0  0  0  0  0  0  0  0  0  0  0
    1.3069    3.1498   -3.1233 H   0  0  0  0  0  0  0  0  0  0  0  0
    0.9723   -1.1563   -3.0860 H   0  0  0  0  0  0  0  0  0  0  0  0
    1.8081   -0.0640   -2.0069 H   0  0  0  0  0  0  0  0  0  0  0  0
    3.0512   -1.6772   -2.6544 C   0  0  0  0  0  0  0  0  0  0  0  0
    3.8354   -1.4768   -1.8962 H   0  0  0  0  0  0  0  0  0  0  0  0
    3.3670   -1.1629   -3.5847 H   0  0  0  0  0  0  0  0  0  0  0  0
    3.0549   -2.7640   -2.8597 H   0  0  0  0  0  0  0  0  0  0  0  0
   -0.4567   -3.4241   -0.6195 H   0  0  0  0  0  0  0  0  0  0  0  0
   -0.6044   -2.7168   -2.2282 H   0  0  0  0  0  0  0  0  0  0  0  0
    0.9208   -4.2341   -2.0943 C   0  0  0  0  0  0  0  0  0  0  0  0
    0.2327   -5.0832   -2.2772 H   0  0  0  0  0  0  0  0  0  0  0  0
    1.7239   -4.6048   -1.4253 H   0  0  0  0  0  0  0  0  0  0  0  0
    1.3809   -3.9729   -3.0670 H   0  0  0  0  0  0  0  0  0  0  0  0
  2  4  1  0  0  0  0
  2  1  1  0  0  0  0
  2  3  1  0  0  0  0
  4  6  1  0  0  0  0
  4  5  1  0  0  0  0
  6  1  1  0  0  0  0
  6  8  1  0  0  0  0
  7  6  1  0  0  0  0
  9  4  1  0  0  0  0
 10  2  1  0  0  0  0
  1 11  1  0  0  0  0
  1 12  1  0  0  0  0
 13 17  1  0  0  0  0
 13 18  1  0  0  0  0
 14 19  1  0  0  0  0
 14 21  1  0  0  0  0
 14 16  1  0  0  0  0
 14 18  1  0  0  0  0
 15 17  1  0  0  0  0
 15 16  1  0  0  0  0
 16 20  1  0  0  0  0
 16 22  1  0  0  0  0
 18 23  1  0  0  0  0
 18 24  1  0  0  0  0
 25 26  1  0  0  0  0
 25 27  1  0  0  0  0
 25 28  1  0  0  0  0
 15 25  1  0  0  0  0
 29 30  1  0  0  0  0
 29 31  1  0  0  0  0
 29 32  1  0  0  0  0
 15 29  1  0  0  0  0
 33 36  2  0  0  0  0
 36 37  1  0  0  0  0
 34 37  2  0  0  0  0
 34 38  1  0  0  0  0
 35 38  2  0  0  0  0
 33 35  1  0  0  0  0
 37 39  1  0  0  0  0
 38 40  1  0  0  0  0
 34 41  1  0  0  0  0
 17 33  1  0  0  0  0
 42 43  1  0  0  0  0
 36 42  1  0  0  0  0
 44 45  1  0  0  0  0
 35 44  1  0  0  0  0
 46 47  1  0  0  0  0
 46 48  1  0  0  0  0
 46 49  1  0  0  0  0
 44 46  1  0  0  0  0
 50 51  1  0  0  0  0
 50 52  1  0  0  0  0
 50 53  1  0  0  0  0
 44 50  1  0  0  0  0
 54 55  1  0  0  0  0
 54 56  1  0  0  0  0
 54 57  1  0  0  0  0
 42 54  1  0  0  0  0
 58 59  1  0  0  0  0
 58 60  1  0  0  0  0
 58 61  1  0  0  0  0
 42 58  1  0  0  0  0
 24 62  1  0  0  0  0
 24 63  1  0  0  0  0
 64 65  1  0  0  0  0
 64 66  1  0  0  0  0
 64 67  1  0  0  0  0
 24 64  1  0  0  0  0
 23 68  1  0  0  0  0
 23 69  1  0  0  0  0
 70 71  1  0  0  0  0
 70 72  1  0  0  0  0
 70 73  1  0  0  0  0
 23 70  1  0  0  0  0
  1 13  1  0  0  0  0
M  END
>  <DFT-ENERGY>
-2084.86482494

$$$$
