
  CDK     08142422563D

 73 76  0  0  0  0  0  0  0  0999 V2000
   -1.3488    0.9698   -2.7179 H   0  0  0  0  0  0  0  0  0  0  0  0
   -2.5594    1.1499   -2.8452 C   0  0  0  0  0  0  0  0  0  0  0  0
   -2.4480    1.0358   -3.9453 H   0  0  0  0  0  0  0  0  0  0  0  0
   -2.7300    2.4684   -2.1699 C   0  0  0  0  0  0  0  0  0  0  0  0
   -3.7020    2.6691   -1.6905 H   0  0  0  0  0  0  0  0  0  0  0  0
   -2.2516    3.3338   -2.6592 H   0  0  0  0  0  0  0  0  0  0  0  0
   -1.5042    1.2856   -0.9794 Ru  0  0  0  0  0  0  0  0  0  0  0  0
   -2.9834    0.0487   -1.9686 C   0  0  0  0  0  0  0  0  0  0  0  0
   -3.9363    0.1313   -1.4318 H   0  0  0  0  0  0  0  0  0  0  0  0
   -2.6664   -0.9697   -2.2446 H   0  0  0  0  0  0  0  0  0  0  0  0
   -3.2878    1.2963    0.6417 Cl  0  0  0  0  0  0  0  0  0  0  0  0
    0.4079    2.4059   -1.9557 Cl  0  0  0  0  0  0  0  0  0  0  0  0
   -0.3996    1.8858    0.6688 C   0  0  0  0  0  0  0  0  0  0  0  0
    1.0619    3.5629    1.8714 C   0  0  0  0  0  0  0  0  0  0  0  0
    1.7376    1.1247    1.7869 C   0  0  0  0  0  0  0  0  0  0  0  0
    1.5925    2.3743    2.6669 C   0  0  0  0  0  0  0  0  0  0  0  0
    0.3957    0.8974    1.0914 N   0  0  0  0  0  0  0  0  0  0  0  0
   -0.3480    3.2712    1.3250 C   0  0  0  0  0  0  0  0  0  0  0  0
    1.7380    3.7942    1.0239 H   0  0  0  0  0  0  0  0  0  0  0  0
    0.9148    2.1432    3.5146 H   0  0  0  0  0  0  0  0  0  0  0  0
    1.0380    4.4693    2.5059 H   0  0  0  0  0  0  0  0  0  0  0  0
    2.5857    2.5974    3.1072 H   0  0  0  0  0  0  0  0  0  0  0  0
   -0.8081    4.3642    0.3310 C   0  0  0  0  0  0  0  0  0  0  0  0
   -1.3913    3.1518    2.5122 C   0  0  0  0  0  0  0  0  0  0  0  0
    2.1364   -0.0820    2.6338 C   0  0  0  0  0  0  0  0  0  0  0  0
    1.5335   -0.1649    3.5547 H   0  0  0  0  0  0  0  0  0  0  0  0
    3.1963    0.0346    2.9329 H   0  0  0  0  0  0  0  0  0  0  0  0
    2.0477   -1.0288    2.0664 H   0  0  0  0  0  0  0  0  0  0  0  0
    2.8215    1.3752    0.7166 C   0  0  0  0  0  0  0  0  0  0  0  0
    3.1549    0.4344    0.2475 H   0  0  0  0  0  0  0  0  0  0  0  0
    3.7037    1.8322    1.2083 H   0  0  0  0  0  0  0  0  0  0  0  0
    2.4643    2.0534   -0.0805 H   0  0  0  0  0  0  0  0  0  0  0  0
   -0.1321   -0.4311    0.7095 C   0  0  0  0  0  0  0  0  0  0  0  0
   -1.5682   -2.7192   -0.0671 C   0  0  0  0  0  0  0  0  0  0  0  0
    0.1248   -1.0095   -0.5779 C   0  0  0  0  0  0  0  0  0  0  0  0
   -1.0123   -1.0639    1.6421 C   0  0  0  0  0  0  0  0  0  0  0  0
   -1.7293   -2.1921    1.2194 C   0  0  0  0  0  0  0  0  0  0  0  0
   -0.6318   -2.1555   -0.9285 C   0  0  0  0  0  0  0  0  0  0  0  0
   -2.4281   -2.6703    1.9197 H   0  0  0  0  0  0  0  0  0  0  0  0
   -0.4507   -2.6187   -1.9080 H   0  0  0  0  0  0  0  0  0  0  0  0
   -2.1517   -3.5966   -0.3821 H   0  0  0  0  0  0  0  0  0  0  0  0
   -1.1420   -0.6511    3.1070 C   0  0  0  0  0  0  0  0  0  0  0  0
   -0.5482    0.2729    3.2531 H   0  0  0  0  0  0  0  0  0  0  0  0
    1.3397   -0.6924   -1.4447 C   0  0  0  0  0  0  0  0  0  0  0  0
    1.6448    0.3475   -1.2424 H   0  0  0  0  0  0  0  0  0  0  0  0
    2.4837   -1.6536   -1.0578 C   0  0  0  0  0  0  0  0  0  0  0  0
    3.4149   -1.3907   -1.6006 H   0  0  0  0  0  0  0  0  0  0  0  0
    2.2205   -2.6998   -1.3176 H   0  0  0  0  0  0  0  0  0  0  0  0
    2.7011   -1.6337    0.0283 H   0  0  0  0  0  0  0  0  0  0  0  0
    1.0860   -0.7948   -2.9545 C   0  0  0  0  0  0  0  0  0  0  0  0
    1.9772   -0.4362   -3.5062 H   0  0  0  0  0  0  0  0  0  0  0  0
    0.2302   -0.1663   -3.2639 H   0  0  0  0  0  0  0  0  0  0  0  0
    0.8970   -1.8379   -3.2816 H   0  0  0  0  0  0  0  0  0  0  0  0
   -0.5485   -1.7579    4.0055 C   0  0  0  0  0  0  0  0  0  0  0  0
   -0.5022   -1.4161    5.0600 H   0  0  0  0  0  0  0  0  0  0  0  0
    0.4678   -2.0632    3.6921 H   0  0  0  0  0  0  0  0  0  0  0  0
   -1.1884   -2.6633    3.9770 H   0  0  0  0  0  0  0  0  0  0  0  0
   -2.5818   -0.3556    3.5555 C   0  0  0  0  0  0  0  0  0  0  0  0
   -3.2209   -1.2582    3.4705 H   0  0  0  0  0  0  0  0  0  0  0  0
   -3.0401    0.4388    2.9398 H   0  0  0  0  0  0  0  0  0  0  0  0
   -2.5846   -0.0476    4.6212 H   0  0  0  0  0  0  0  0  0  0  0  0
   -2.3909    3.3396    2.0790 H   0  0  0  0  0  0  0  0  0  0  0  0
   -1.4416    2.1037    2.8619 H   0  0  0  0  0  0  0  0  0  0  0  0
   -1.1563    4.0502    3.7322 C   0  0  0  0  0  0  0  0  0  0  0  0
   -0.2463    3.7770    4.3037 H   0  0  0  0  0  0  0  0  0  0  0  0
   -2.0149    3.9385    4.4254 H   0  0  0  0  0  0  0  0  0  0  0  0
   -1.0778    5.1225    3.4746 H   0  0  0  0  0  0  0  0  0  0  0  0
   -0.0534    4.4283   -0.4758 H   0  0  0  0  0  0  0  0  0  0  0  0
   -1.7321    3.9906   -0.1564 H   0  0  0  0  0  0  0  0  0  0  0  0
   -1.0576    5.7589    0.9078 C   0  0  0  0  0  0  0  0  0  0  0  0
   -1.2877    6.4622    0.0825 H   0  0  0  0  0  0  0  0  0  0  0  0
   -0.1748    6.1676    1.4424 H   0  0  0  0  0  0  0  0  0  0  0  0
   -1.9195    5.7860    1.6035 H   0  0  0  0  0  0  0  0  0  0  0  0
  1  2  1  0  0  0  0
  1  7  1  0  0  0  0
  2  3  1  0  0  0  0
  2  4  1  0  0  0  0
  4  5  1  0  0  0  0
  4  6  1  0  0  0  0
  7  8  1  0  0  0  0
  4  7  1  0  0  0  0
  2  8  1  0  0  0  0
  8  9  1  0  0  0  0
  8 10  1  0  0  0  0
  7 11  1  0  0  0  0
  7 12  1  0  0  0  0
 13 17  1  0  0  0  0
 13 18  1  0  0  0  0
 14 19  1  0  0  0  0
 14 21  1  0  0  0  0
 14 16  1  0  0  0  0
 14 18  1  0  0  0  0
 15 17  1  0  0  0  0
 15 16  1  0  0  0  0
 16 20  1  0  0  0  0
 16 22  1  0  0  0  0
 18 23  1  0  0  0  0
 18 24  1  0  0  0  0
 25 26  1  0  0  0  0
 25 27  1  0  0  0  0
 25 28  1  0  0  0  0
 15 25  1  0  0  0  0
 29 30  1  0  0  0  0
 29 31  1  0  0  0  0
 29 32  1  0  0  0  0
 15 29  1  0  0  0  0
 33 36  2  0  0  0  0
 36 37  1  0  0  0  0
 34 37  2  0  0  0  0
 34 38  1  0  0  0  0
 35 38  2  0  0  0  0
 33 35  1  0  0  0  0
 37 39  1  0  0  0  0
 38 40  1  0  0  0  0
 34 41  1  0  0  0  0
 17 33  1  0  0  0  0
 42 43  1  0  0  0  0
 36 42  1  0  0  0  0
 44 45  1  0  0  0  0
 35 44  1  0  0  0  0
 46 47  1  0  0  0  0
 46 48  1  0  0  0  0
 46 49  1  0  0  0  0
 44 46  1  0  0  0  0
 50 51  1  0  0  0  0
 50 52  1  0  0  0  0
 50 53  1  0  0  0  0
 44 50  1  0  0  0  0
 54 55  1  0  0  0  0
 54 56  1  0  0  0  0
 54 57  1  0  0  0  0
 42 54  1  0  0  0  0
 58 59  1  0  0  0  0
 58 60  1  0  0  0  0
 58 61  1  0  0  0  0
 42 58  1  0  0  0  0
 24 62  1  0  0  0  0
 24 63  1  0  0  0  0
 64 65  1  0  0  0  0
 64 66  1  0  0  0  0
 64 67  1  0  0  0  0
 24 64  1  0  0  0  0
 23 68  1  0  0  0  0
 23 69  1  0  0  0  0
 70 71  1  0  0  0  0
 70 72  1  0  0  0  0
 70 73  1  0  0  0  0
 23 70  1  0  0  0  0
  7 13  1  0  0  0  0
M  END
>  <DFT-ENERGY>
-2084.82007847

$$$$
