
  CDK     02062400533D

 64 68  0  0  0  0  0  0  0  0999 V2000
    0.2581   -1.1414   -3.5196 H   0  0  0  0  0  0  0  0  0  0  0  0
    0.3756   -2.3596   -3.6471 C   0  0  0  0  0  0  0  0  0  0  0  0
    1.0106   -2.1006   -4.5299 H   0  0  0  0  0  0  0  0  0  0  0  0
    0.9411   -2.6314   -2.3077 C   0  0  0  0  0  0  0  0  0  0  0  0
    0.7625   -3.6329   -1.8873 H   0  0  0  0  0  0  0  0  0  0  0  0
    1.9165   -2.1855   -2.0576 H   0  0  0  0  0  0  0  0  0  0  0  0
   -0.7725   -1.4186   -2.1027 Ru  0  0  0  0  0  0  0  0  0  0  0  0
   -0.9809   -2.8615   -3.7856 C   0  0  0  0  0  0  0  0  0  0  0  0
   -1.2380   -3.8270   -3.3283 H   0  0  0  0  0  0  0  0  0  0  0  0
   -1.5737   -2.5443   -4.6578 H   0  0  0  0  0  0  0  0  0  0  0  0
   -1.6496   -3.0528   -0.6933 Cl  0  0  0  0  0  0  0  0  0  0  0  0
   -1.2470    0.5622   -3.2820 Cl  0  0  0  0  0  0  0  0  0  0  0  0
   -0.3014   -0.0287   -0.2323 P   0  0  0  0  0  0  0  0  0  0  0  0
   -1.7805    0.9702    0.4020 C   0  0  0  0  0  0  0  0  0  0  0  0
   -1.5893    1.1350    1.4874 H   0  0  0  0  0  0  0  0  0  0  0  0
   -1.9827    2.3472   -0.2569 C   0  0  0  0  0  0  0  0  0  0  0  0
   -1.0910    2.9896   -0.1166 H   0  0  0  0  0  0  0  0  0  0  0  0
   -2.1124    2.2111   -1.3509 H   0  0  0  0  0  0  0  0  0  0  0  0
    1.4470   -1.8718    1.0172 C   0  0  0  0  0  0  0  0  0  0  0  0
    0.9615   -2.6960    0.4543 H   0  0  0  0  0  0  0  0  0  0  0  0
    2.2238   -1.4439    0.3517 H   0  0  0  0  0  0  0  0  0  0  0  0
   -4.4822    2.2091    0.1859 C   0  0  0  0  0  0  0  0  0  0  0  0
   -4.7152    2.0812   -0.8950 H   0  0  0  0  0  0  0  0  0  0  0  0
   -5.3514    2.7304    0.6386 H   0  0  0  0  0  0  0  0  0  0  0  0
    0.9640    1.2974   -0.6768 C   0  0  0  0  0  0  0  0  0  0  0  0
    0.3604    1.9505   -1.3449 H   0  0  0  0  0  0  0  0  0  0  0  0
    0.3732   -0.8189    1.3424 C   0  0  0  0  0  0  0  0  0  0  0  0
    0.8594    0.0264    1.8808 H   0  0  0  0  0  0  0  0  0  0  0  0
   -3.0561    0.1180    0.2472 C   0  0  0  0  0  0  0  0  0  0  0  0
   -3.2125   -0.0728   -0.8394 H   0  0  0  0  0  0  0  0  0  0  0  0
   -2.9273   -0.8787    0.7099 H   0  0  0  0  0  0  0  0  0  0  0  0
    1.0401   -3.0030    3.2458 C   0  0  0  0  0  0  0  0  0  0  0  0
    0.5591   -3.8839    2.7648 H   0  0  0  0  0  0  0  0  0  0  0  0
    1.5163   -3.3700    4.1789 H   0  0  0  0  0  0  0  0  0  0  0  0
   -4.2868    0.8292    0.8230 C   0  0  0  0  0  0  0  0  0  0  0  0
   -5.1874    0.1975    0.6766 H   0  0  0  0  0  0  0  0  0  0  0  0
   -4.1595    0.9454    1.9237 H   0  0  0  0  0  0  0  0  0  0  0  0
   -3.2136    3.0578    0.3283 C   0  0  0  0  0  0  0  0  0  0  0  0
   -3.0349    3.2701    1.4075 H   0  0  0  0  0  0  0  0  0  0  0  0
   -3.3446    4.0423   -0.1676 H   0  0  0  0  0  0  0  0  0  0  0  0
    2.0943   -2.4257    2.2944 C   0  0  0  0  0  0  0  0  0  0  0  0
    2.6481   -1.6090    2.8116 H   0  0  0  0  0  0  0  0  0  0  0  0
    2.8472   -3.1975    2.0302 H   0  0  0  0  0  0  0  0  0  0  0  0
   -0.6896   -1.4130    2.2860 C   0  0  0  0  0  0  0  0  0  0  0  0
   -1.4471   -0.6505    2.5562 H   0  0  0  0  0  0  0  0  0  0  0  0
   -1.2210   -2.2319    1.7600 H   0  0  0  0  0  0  0  0  0  0  0  0
    2.1386    0.7826   -1.5229 C   0  0  0  0  0  0  0  0  0  0  0  0
    2.7718    0.0969   -0.9172 H   0  0  0  0  0  0  0  0  0  0  0  0
    1.7467    0.1953   -2.3765 H   0  0  0  0  0  0  0  0  0  0  0  0
    1.4786    2.1370    0.5039 C   0  0  0  0  0  0  0  0  0  0  0  0
    2.1086    1.5003    1.1635 H   0  0  0  0  0  0  0  0  0  0  0  0
    0.6399    2.5057    1.1302 H   0  0  0  0  0  0  0  0  0  0  0  0
   -0.0351   -1.9575    3.5649 C   0  0  0  0  0  0  0  0  0  0  0  0
   -0.8140   -2.3895    4.2272 H   0  0  0  0  0  0  0  0  0  0  0  0
    0.4283   -1.1162    4.1299 H   0  0  0  0  0  0  0  0  0  0  0  0
    3.4938    2.8276   -0.8693 C   0  0  0  0  0  0  0  0  0  0  0  0
    4.1933    2.2337   -0.2378 H   0  0  0  0  0  0  0  0  0  0  0  0
    4.0756    3.6900   -1.2560 H   0  0  0  0  0  0  0  0  0  0  0  0
    2.3280    3.3153    0.0001 C   0  0  0  0  0  0  0  0  0  0  0  0
    1.6823    3.9986   -0.5963 H   0  0  0  0  0  0  0  0  0  0  0  0
    2.7040    3.9069    0.8609 H   0  0  0  0  0  0  0  0  0  0  0  0
    2.9954    1.9529   -2.0267 C   0  0  0  0  0  0  0  0  0  0  0  0
    3.8514    1.5698   -2.6206 H   0  0  0  0  0  0  0  0  0  0  0  0
    2.3814    2.5716   -2.7191 H   0  0  0  0  0  0  0  0  0  0  0  0
  1  2  1  0  0  0  0
  1  7  1  0  0  0  0
  2  3  1  0  0  0  0
  2  4  1  0  0  0  0
  4  5  1  0  0  0  0
  4  6  1  0  0  0  0
  7  8  1  0  0  0  0
  4  7  1  0  0  0  0
  2  8  1  0  0  0  0
  8  9  1  0  0  0  0
  8 10  1  0  0  0  0
  7 11  1  0  0  0  0
  7 12  1  0  0  0  0
 13 14  1  0  0  0  0
 14 15  1  0  0  0  0
 14 16  1  0  0  0  0
 16 17  1  0  0  0  0
 16 18  1  0  0  0  0
 19 20  1  0  0  0  0
 19 21  1  0  0  0  0
 22 23  1  0  0  0  0
 22 24  1  0  0  0  0
 13 25  1  0  0  0  0
 25 26  1  0  0  0  0
 13 27  1  0  0  0  0
 27 28  1  0  0  0  0
 14 29  1  0  0  0  0
 29 30  1  0  0  0  0
 29 31  1  0  0  0  0
 32 33  1  0  0  0  0
 32 34  1  0  0  0  0
 22 35  1  0  0  0  0
 35 36  1  0  0  0  0
 35 37  1  0  0  0  0
 16 38  1  0  0  0  0
 38 39  1  0  0  0  0
 38 40  1  0  0  0  0
 19 41  1  0  0  0  0
 41 42  1  0  0  0  0
 41 43  1  0  0  0  0
 27 44  1  0  0  0  0
 44 45  1  0  0  0  0
 44 46  1  0  0  0  0
 25 47  1  0  0  0  0
 47 48  1  0  0  0  0
 47 49  1  0  0  0  0
 25 50  1  0  0  0  0
 50 51  1  0  0  0  0
 50 52  1  0  0  0  0
 32 53  1  0  0  0  0
 53 54  1  0  0  0  0
 53 55  1  0  0  0  0
 56 57  1  0  0  0  0
 56 58  1  0  0  0  0
 50 59  1  0  0  0  0
 59 60  1  0  0  0  0
 59 61  1  0  0  0  0
 47 62  1  0  0  0  0
 62 63  1  0  0  0  0
 62 64  1  0  0  0  0
 19 27  1  0  0  0  0
 22 38  1  0  0  0  0
 29 35  1  0  0  0  0
 32 41  1  0  0  0  0
 44 53  1  0  0  0  0
 56 59  1  0  0  0  0
 56 62  1  0  0  0  0
  7 13  1  0  0  0  0
M  END
>  <DFT-ENERGY>
-2178.67498758

$$$$
