
  CDK     02052416343D

 70 73  0  0  0  0  0  0  0  0999 V2000
   -0.4003   -4.1450   -2.1654 C   0  0  0  0  0  0  0  0  0  0  0  0
    0.6235   -4.0511   -2.5676 H   0  0  0  0  0  0  0  0  0  0  0  0
   -0.8695   -5.0806   -2.5435 H   0  0  0  0  0  0  0  0  0  0  0  0
   -1.0072   -3.3076   -2.5689 H   0  0  0  0  0  0  0  0  0  0  0  0
   -0.4226   -4.1736   -0.6541 C   0  0  0  0  0  0  0  0  0  0  0  0
   -1.4141   -4.3372   -0.1924 H   0  0  0  0  0  0  0  0  0  0  0  0
    0.6839   -4.5650    0.1447 C   0  0  0  0  0  0  0  0  0  0  0  0
    1.6599   -4.6578   -0.3631 H   0  0  0  0  0  0  0  0  0  0  0  0
    0.4554   -5.3782    1.3980 C   0  0  0  0  0  0  0  0  0  0  0  0
    1.3369   -5.3991    2.0660 H   0  0  0  0  0  0  0  0  0  0  0  0
    0.2420   -6.4259    1.0944 H   0  0  0  0  0  0  0  0  0  0  0  0
   -0.4226   -4.9981    1.9564 H   0  0  0  0  0  0  0  0  0  0  0  0
    1.3787   -2.7299    1.3837 C   0  0  0  0  0  0  0  0  0  0  0  0
    1.0001   -2.9948    2.3955 H   0  0  0  0  0  0  0  0  0  0  0  0
    2.4805   -2.7624    1.2235 H   0  0  0  0  0  0  0  0  0  0  0  0
    0.2463   -2.2259    0.0440 Ru  0  0  0  0  0  0  0  0  0  0  0  0
   -1.6449   -2.4407    1.5233 Cl  0  0  0  0  0  0  0  0  0  0  0  0
    2.1139   -2.1726   -1.4739 Cl  0  0  0  0  0  0  0  0  0  0  0  0
    0.0501    0.1560    0.0069 P   0  0  0  0  0  0  0  0  0  0  0  0
   -1.6383    0.6009   -0.6734 C   0  0  0  0  0  0  0  0  0  0  0  0
   -1.5403    1.6252   -1.0940 H   0  0  0  0  0  0  0  0  0  0  0  0
   -1.9126   -0.3888   -1.8265 C   0  0  0  0  0  0  0  0  0  0  0  0
   -1.0831   -0.3754   -2.5645 H   0  0  0  0  0  0  0  0  0  0  0  0
   -1.9449   -1.4159   -1.3893 H   0  0  0  0  0  0  0  0  0  0  0  0
   -0.2944    0.3602    2.8599 C   0  0  0  0  0  0  0  0  0  0  0  0
   -1.3986    0.4177    2.7728 H   0  0  0  0  0  0  0  0  0  0  0  0
   -0.0578   -0.7197    2.8818 H   0  0  0  0  0  0  0  0  0  0  0  0
   -4.4031   -0.0963   -1.5002 C   0  0  0  0  0  0  0  0  0  0  0  0
   -4.5120   -1.1143   -1.0640 H   0  0  0  0  0  0  0  0  0  0  0  0
   -5.3628    0.1398   -2.0051 H   0  0  0  0  0  0  0  0  0  0  0  0
    1.2560    0.9404   -1.2155 C   0  0  0  0  0  0  0  0  0  0  0  0
    1.3509    0.1249   -1.9656 H   0  0  0  0  0  0  0  0  0  0  0  0
    0.3656    1.0216    1.6401 C   0  0  0  0  0  0  0  0  0  0  0  0
    1.4655    0.8842    1.7501 H   0  0  0  0  0  0  0  0  0  0  0  0
   -2.7969    0.6049    0.3366 C   0  0  0  0  0  0  0  0  0  0  0  0
   -2.8461   -0.3838    0.8376 H   0  0  0  0  0  0  0  0  0  0  0  0
   -2.6150    1.3611    1.1259 H   0  0  0  0  0  0  0  0  0  0  0  0
   -0.1410    2.5554    4.1241 C   0  0  0  0  0  0  0  0  0  0  0  0
   -1.2430    2.7099    4.0786 H   0  0  0  0  0  0  0  0  0  0  0  0
    0.2072    3.0434    5.0583 H   0  0  0  0  0  0  0  0  0  0  0  0
   -4.1268    0.9048   -0.3719 C   0  0  0  0  0  0  0  0  0  0  0  0
   -4.9522    0.8902    0.3697 H   0  0  0  0  0  0  0  0  0  0  0  0
   -4.1012    1.9352   -0.7958 H   0  0  0  0  0  0  0  0  0  0  0  0
   -3.2539   -0.1054   -2.5152 C   0  0  0  0  0  0  0  0  0  0  0  0
   -3.1989    0.8845   -3.0227 H   0  0  0  0  0  0  0  0  0  0  0  0
   -3.4349   -0.8575   -3.3112 H   0  0  0  0  0  0  0  0  0  0  0  0
    0.1549    1.0512    4.1546 C   0  0  0  0  0  0  0  0  0  0  0  0
    1.2497    0.8971    4.2927 H   0  0  0  0  0  0  0  0  0  0  0  0
   -0.3419    0.5724    5.0236 H   0  0  0  0  0  0  0  0  0  0  0  0
    0.0805    2.5352    1.5935 C   0  0  0  0  0  0  0  0  0  0  0  0
    0.6038    3.0066    0.7389 H   0  0  0  0  0  0  0  0  0  0  0  0
   -1.0065    2.7028    1.4318 H   0  0  0  0  0  0  0  0  0  0  0  0
    2.6518    1.0952   -0.5849 C   0  0  0  0  0  0  0  0  0  0  0  0
    2.6338    1.8978    0.1859 H   0  0  0  0  0  0  0  0  0  0  0  0
    2.9400    0.1484   -0.0847 H   0  0  0  0  0  0  0  0  0  0  0  0
    0.8309    2.2184   -1.9580 C   0  0  0  0  0  0  0  0  0  0  0  0
    0.7109    3.0681   -1.2507 H   0  0  0  0  0  0  0  0  0  0  0  0
   -0.1504    2.0806   -2.4557 H   0  0  0  0  0  0  0  0  0  0  0  0
    0.5108    3.2144    2.9035 C   0  0  0  0  0  0  0  0  0  0  0  0
    0.2664    4.2964    2.8611 H   0  0  0  0  0  0  0  0  0  0  0  0
    1.6184    3.1448    2.9975 H   0  0  0  0  0  0  0  0  0  0  0  0
    3.2841    2.7279   -2.4120 C   0  0  0  0  0  0  0  0  0  0  0  0
    3.2920    3.5916   -1.7079 H   0  0  0  0  0  0  0  0  0  0  0  0
    4.0241    2.9632   -3.2050 H   0  0  0  0  0  0  0  0  0  0  0  0
    1.8830    2.5866   -3.0189 C   0  0  0  0  0  0  0  0  0  0  0  0
    1.9015    1.7886   -3.7946 H   0  0  0  0  0  0  0  0  0  0  0  0
    1.5826    3.5227   -3.5346 H   0  0  0  0  0  0  0  0  0  0  0  0
    3.6882    1.4561   -1.6572 C   0  0  0  0  0  0  0  0  0  0  0  0
    4.6875    1.5800   -1.1903 H   0  0  0  0  0  0  0  0  0  0  0  0
    3.7709    0.6047   -2.3678 H   0  0  0  0  0  0  0  0  0  0  0  0
  1  2  1  0  0  0  0
  1  5  1  0  0  0  0
  3  1  1  0  0  0  0
  4  1  1  0  0  0  0
  5  6  1  0  0  0  0
  5 16  1  0  0  0  0
  5  7  1  0  0  0  0
  7  9  1  0  0  0  0
  7  8  1  0  0  0  0
  9 10  1  0  0  0  0
 11  9  1  0  0  0  0
 12  9  1  0  0  0  0
 13 14  1  0  0  0  0
 13 15  1  0  0  0  0
 13  7  1  0  0  0  0
 16 13  1  0  0  0  0
 16 17  1  0  0  0  0
 16 18  1  0  0  0  0
 20 19  1  0  0  0  0
 21 20  1  0  0  0  0
 22 20  1  0  0  0  0
 23 22  1  0  0  0  0
 24 22  1  0  0  0  0
 25 26  1  0  0  0  0
 27 25  1  0  0  0  0
 28 29  1  0  0  0  0
 30 28  1  0  0  0  0
 31 19  1  0  0  0  0
 32 31  1  0  0  0  0
 33 19  1  0  0  0  0
 34 33  1  0  0  0  0
 35 20  1  0  0  0  0
 36 35  1  0  0  0  0
 37 35  1  0  0  0  0
 38 39  1  0  0  0  0
 40 38  1  0  0  0  0
 41 28  1  0  0  0  0
 42 41  1  0  0  0  0
 43 41  1  0  0  0  0
 44 22  1  0  0  0  0
 45 44  1  0  0  0  0
 46 44  1  0  0  0  0
 47 25  1  0  0  0  0
 48 47  1  0  0  0  0
 49 47  1  0  0  0  0
 50 33  1  0  0  0  0
 51 50  1  0  0  0  0
 52 50  1  0  0  0  0
 53 31  1  0  0  0  0
 54 53  1  0  0  0  0
 55 53  1  0  0  0  0
 56 31  1  0  0  0  0
 57 56  1  0  0  0  0
 58 56  1  0  0  0  0
 59 38  1  0  0  0  0
 60 59  1  0  0  0  0
 61 59  1  0  0  0  0
 62 63  1  0  0  0  0
 64 62  1  0  0  0  0
 65 56  1  0  0  0  0
 66 65  1  0  0  0  0
 67 65  1  0  0  0  0
 68 53  1  0  0  0  0
 69 68  1  0  0  0  0
 70 68  1  0  0  0  0
 25 33  1  0  0  0  0
 28 44  1  0  0  0  0
 35 41  1  0  0  0  0
 38 47  1  0  0  0  0
 50 59  1  0  0  0  0
 62 65  1  0  0  0  0
 62 68  1  0  0  0  0
 16 19  1  0  0  0  0
M  END
>  <DFT-ENERGY>
-2257.21505577

$$$$
