
  CDK     08142419213D

 72 76  0  0  0  0  0  0  0  0999 V2000
    1.5317   -0.9016   -1.1231 Ru  0  0  0  0  0  0  0  0  0  0  0  0
    2.7802   -0.9398   -2.6516 C   0  0  0  0  0  0  0  0  0  0  0  0
    2.2957   -1.1662   -3.6170 H   0  0  0  0  0  0  0  0  0  0  0  0
    3.2442   -2.2122   -1.8515 C   0  0  0  0  0  0  0  0  0  0  0  0
    3.0689   -3.0861   -2.5042 H   0  0  0  0  0  0  0  0  0  0  0  0
    2.4779   -2.5061   -0.4921 C   0  0  0  0  0  0  0  0  0  0  0  0
    3.1127   -2.3627    0.3996 H   0  0  0  0  0  0  0  0  0  0  0  0
    1.8914   -3.4408   -0.5258 H   0  0  0  0  0  0  0  0  0  0  0  0
    4.3025   -2.0462   -1.5795 H   0  0  0  0  0  0  0  0  0  0  0  0
    3.5266   -0.1274   -2.6612 H   0  0  0  0  0  0  0  0  0  0  0  0
    0.0951   -2.3478   -2.3796 Cl  0  0  0  0  0  0  0  0  0  0  0  0
    3.1593    0.4314    0.0128 Cl  0  0  0  0  0  0  0  0  0  0  0  0
   -2.1340   -2.5351    2.6113 C   0  0  0  0  0  0  0  0  0  0  0  0
   -1.8619   -1.8799    1.3951 C   0  0  0  0  0  0  0  0  0  0  0  0
   -1.0186   -0.7321    1.4280 C   0  0  0  0  0  0  0  0  0  0  0  0
   -0.3573   -0.3442    2.6296 C   0  0  0  0  0  0  0  0  0  0  0  0
   -0.6761   -1.0394    3.8123 C   0  0  0  0  0  0  0  0  0  0  0  0
   -1.5813   -2.1019    3.8180 C   0  0  0  0  0  0  0  0  0  0  0  0
   -0.9441    0.1405    0.2649 N   0  0  0  0  0  0  0  0  0  0  0  0
   -2.0070    1.2313    0.0909 C   0  0  0  0  0  0  0  0  0  0  0  0
   -1.6769    1.7141   -1.3307 C   0  0  0  0  0  0  0  0  0  0  0  0
   -0.1694    1.4586   -1.5288 C   0  0  0  0  0  0  0  0  0  0  0  0
    0.0340    0.2207   -0.6412 C   0  0  0  0  0  0  0  0  0  0  0  0
    0.2594    1.2800   -2.9807 C   0  0  0  0  0  0  0  0  0  0  0  0
    1.3903    2.0615   -3.2833 C   0  0  0  0  0  0  0  0  0  0  0  0
    1.8725    2.8215   -2.0768 C   0  0  0  0  0  0  0  0  0  0  0  0
    0.7479    2.6400   -1.0327 C   0  0  0  0  0  0  0  0  0  0  0  0
   -0.3405    0.4739   -3.9585 C   0  0  0  0  0  0  0  0  0  0  0  0
    0.2101    0.4480   -5.2483 C   0  0  0  0  0  0  0  0  0  0  0  0
    1.3449    1.2215   -5.5532 C   0  0  0  0  0  0  0  0  0  0  0  0
    1.9400    2.0321   -4.5735 C   0  0  0  0  0  0  0  0  0  0  0  0
   -1.8304    2.3159    1.1583 C   0  0  0  0  0  0  0  0  0  0  0  0
   -3.4197    0.6615    0.1761 C   0  0  0  0  0  0  0  0  0  0  0  0
    0.7625    0.6878    2.7089 C   0  0  0  0  0  0  0  0  0  0  0  0
    0.4943    1.8181    3.7170 C   0  0  0  0  0  0  0  0  0  0  0  0
   -2.3879   -2.5260    0.1185 C   0  0  0  0  0  0  0  0  0  0  0  0
   -1.6760   -3.8816   -0.0699 C   0  0  0  0  0  0  0  0  0  0  0  0
    2.0697   -0.0362    3.0899 C   0  0  0  0  0  0  0  0  0  0  0  0
   -3.9096   -2.7541    0.1206 C   0  0  0  0  0  0  0  0  0  0  0  0
   -1.9407    2.7769   -1.4865 H   0  0  0  0  0  0  0  0  0  0  0  0
   -2.2467    1.1067   -2.0611 H   0  0  0  0  0  0  0  0  0  0  0  0
    1.1700    2.4433   -0.0295 H   0  0  0  0  0  0  0  0  0  0  0  0
    0.1196    3.5509   -0.9721 H   0  0  0  0  0  0  0  0  0  0  0  0
    2.8168    2.3780   -1.6959 H   0  0  0  0  0  0  0  0  0  0  0  0
    2.0689    3.8897   -2.2992 H   0  0  0  0  0  0  0  0  0  0  0  0
    2.8258    2.6387   -4.8143 H   0  0  0  0  0  0  0  0  0  0  0  0
    1.7676    1.1925   -6.5684 H   0  0  0  0  0  0  0  0  0  0  0  0
   -0.2443   -0.1886   -6.0208 H   0  0  0  0  0  0  0  0  0  0  0  0
   -1.2047   -0.1577   -3.7143 H   0  0  0  0  0  0  0  0  0  0  0  0
   -0.8196    2.7601    1.1422 H   0  0  0  0  0  0  0  0  0  0  0  0
   -2.0158    1.8980    2.1661 H   0  0  0  0  0  0  0  0  0  0  0  0
   -2.5696    3.1226    0.9848 H   0  0  0  0  0  0  0  0  0  0  0  0
   -4.1412    1.4867    0.0128 H   0  0  0  0  0  0  0  0  0  0  0  0
   -3.6262    0.2198    1.1698 H   0  0  0  0  0  0  0  0  0  0  0  0
   -3.5931   -0.1035   -0.6011 H   0  0  0  0  0  0  0  0  0  0  0  0
   -0.1851   -0.7403    4.7491 H   0  0  0  0  0  0  0  0  0  0  0  0
   -2.7911   -3.4160    2.6010 H   0  0  0  0  0  0  0  0  0  0  0  0
   -1.8274   -2.6166    4.7582 H   0  0  0  0  0  0  0  0  0  0  0  0
    0.9159    1.1268    1.7043 H   0  0  0  0  0  0  0  0  0  0  0  0
    2.9250    0.6647    3.0359 H   0  0  0  0  0  0  0  0  0  0  0  0
    2.2832   -0.8680    2.3942 H   0  0  0  0  0  0  0  0  0  0  0  0
    2.0090   -0.4405    4.1216 H   0  0  0  0  0  0  0  0  0  0  0  0
    1.3370    2.5385    3.7069 H   0  0  0  0  0  0  0  0  0  0  0  0
    0.4142    1.4238    4.7509 H   0  0  0  0  0  0  0  0  0  0  0  0
   -0.4351    2.3771    3.5003 H   0  0  0  0  0  0  0  0  0  0  0  0
   -2.1071   -1.8887   -0.7431 H   0  0  0  0  0  0  0  0  0  0  0  0
   -4.4871   -1.8278    0.2998 H   0  0  0  0  0  0  0  0  0  0  0  0
   -4.2059   -3.4854    0.9007 H   0  0  0  0  0  0  0  0  0  0  0  0
   -4.2278   -3.1745   -0.8547 H   0  0  0  0  0  0  0  0  0  0  0  0
   -1.9479   -4.3239   -1.0484 H   0  0  0  0  0  0  0  0  0  0  0  0
   -1.9684   -4.5924    0.7309 H   0  0  0  0  0  0  0  0  0  0  0  0
   -0.5779   -3.7608   -0.0576 H   0  0  0  0  0  0  0  0  0  0  0  0
  2  4  1  0  0  0  0
  2  1  1  0  0  0  0
  2  3  1  0  0  0  0
  4  6  1  0  0  0  0
  4  5  1  0  0  0  0
  6  1  1  0  0  0  0
  6  8  1  0  0  0  0
  7  6  1  0  0  0  0
  9  4  1  0  0  0  0
 10  2  1  0  0  0  0
  1 11  1  0  0  0  0
  1 12  1  0  0  0  0
 13 14  2  0  0  0  0
 13 18  1  0  0  0  0
 13 57  1  0  0  0  0
 14 15  1  0  0  0  0
 14 36  1  0  0  0  0
 15 16  2  0  0  0  0
 15 19  1  0  0  0  0
 16 17  1  0  0  0  0
 16 34  1  0  0  0  0
 17 18  2  0  0  0  0
 17 56  1  0  0  0  0
 18 58  1  0  0  0  0
 19 20  1  0  0  0  0
 19 23  1  0  0  0  0
 20 21  1  0  0  0  0
 20 32  1  0  0  0  0
 20 33  1  0  0  0  0
 21 22  1  0  0  0  0
 21 40  1  0  0  0  0
 21 41  1  0  0  0  0
 22 23  1  0  0  0  0
 22 24  1  0  0  0  0
 22 27  1  0  0  0  0
 24 25  2  0  0  0  0
 24 28  1  0  0  0  0
 25 26  1  0  0  0  0
 25 31  1  0  0  0  0
 26 27  1  0  0  0  0
 26 44  1  0  0  0  0
 26 45  1  0  0  0  0
 27 42  1  0  0  0  0
 27 43  1  0  0  0  0
 28 29  2  0  0  0  0
 28 49  1  0  0  0  0
 29 30  1  0  0  0  0
 29 48  1  0  0  0  0
 30 31  2  0  0  0  0
 30 47  1  0  0  0  0
 31 46  1  0  0  0  0
 32 50  1  0  0  0  0
 32 51  1  0  0  0  0
 32 52  1  0  0  0  0
 33 53  1  0  0  0  0
 33 54  1  0  0  0  0
 33 55  1  0  0  0  0
 34 35  1  0  0  0  0
 34 38  1  0  0  0  0
 34 59  1  0  0  0  0
 35 63  1  0  0  0  0
 35 64  1  0  0  0  0
 35 65  1  0  0  0  0
 36 37  1  0  0  0  0
 36 39  1  0  0  0  0
 36 66  1  0  0  0  0
 37 70  1  0  0  0  0
 37 71  1  0  0  0  0
 37 72  1  0  0  0  0
 38 60  1  0  0  0  0
 38 61  1  0  0  0  0
 38 62  1  0  0  0  0
 39 67  1  0  0  0  0
 39 68  1  0  0  0  0
 39 69  1  0  0  0  0
  1 23  1  0  0  0  0
M  END
>  <DFT-ENERGY>
-2196.70714726

$$$$
