
  CDK     08132409053D

 78 82  0  0  0  0  0  0  0  0999 V2000
   -4.0992   -0.6440   -1.6193 C   0  0  0  0  0  0  0  0  0  0  0  0
   -4.2737    0.3950   -1.9475 H   0  0  0  0  0  0  0  0  0  0  0  0
   -4.9534   -1.2858   -1.9305 H   0  0  0  0  0  0  0  0  0  0  0  0
   -3.2030   -1.0171   -2.1563 H   0  0  0  0  0  0  0  0  0  0  0  0
   -3.9468   -0.7482   -0.1186 C   0  0  0  0  0  0  0  0  0  0  0  0
   -3.8465   -1.7751    0.2811 H   0  0  0  0  0  0  0  0  0  0  0  0
   -4.5210    0.1793    0.7957 C   0  0  0  0  0  0  0  0  0  0  0  0
   -4.8729    1.1330    0.3648 H   0  0  0  0  0  0  0  0  0  0  0  0
   -5.1615   -0.3034    2.0751 C   0  0  0  0  0  0  0  0  0  0  0  0
   -5.3540    0.5171    2.7914 H   0  0  0  0  0  0  0  0  0  0  0  0
   -6.1399   -0.7676    1.8247 H   0  0  0  0  0  0  0  0  0  0  0  0
   -4.5295   -1.0745    2.5587 H   0  0  0  0  0  0  0  0  0  0  0  0
   -2.7913    1.2787    1.8842 C   0  0  0  0  0  0  0  0  0  0  0  0
   -2.9005    0.8882    2.9175 H   0  0  0  0  0  0  0  0  0  0  0  0
   -3.0947    2.3308    1.6962 H   0  0  0  0  0  0  0  0  0  0  0  0
   -2.0943    0.2300    0.5458 Ru  0  0  0  0  0  0  0  0  0  0  0  0
   -1.9079   -1.6621    2.0369 Cl  0  0  0  0  0  0  0  0  0  0  0  0
   -2.4539    2.0327   -0.9844 Cl  0  0  0  0  0  0  0  0  0  0  0  0
    1.0381    4.0124    2.8370 C   0  0  0  0  0  0  0  0  0  0  0  0
    0.8085    3.1067    1.7832 C   0  0  0  0  0  0  0  0  0  0  0  0
    0.8363    1.7122    2.0785 C   0  0  0  0  0  0  0  0  0  0  0  0
    0.9531    1.2554    3.4240 C   0  0  0  0  0  0  0  0  0  0  0  0
    1.1684    2.2142    4.4328 C   0  0  0  0  0  0  0  0  0  0  0  0
    1.2481    3.5780    4.1465 C   0  0  0  0  0  0  0  0  0  0  0  0
    0.8762    0.7476    0.9886 N   0  0  0  0  0  0  0  0  0  0  0  0
    2.2417    0.3084    0.4486 C   0  0  0  0  0  0  0  0  0  0  0  0
    1.8429   -0.8792   -0.4419 C   0  0  0  0  0  0  0  0  0  0  0  0
    0.3449   -0.6845   -0.7997 C   0  0  0  0  0  0  0  0  0  0  0  0
   -0.1620    0.2188    0.3298 C   0  0  0  0  0  0  0  0  0  0  0  0
    0.1566   -0.1310   -2.2205 C   0  0  0  0  0  0  0  0  0  0  0  0
   -0.0680   -1.2013   -3.1140 C   0  0  0  0  0  0  0  0  0  0  0  0
   -0.1215   -2.5109   -2.3627 C   0  0  0  0  0  0  0  0  0  0  0  0
   -0.4031   -2.0451   -0.9231 C   0  0  0  0  0  0  0  0  0  0  0  0
    0.2132    1.1837   -2.6962 C   0  0  0  0  0  0  0  0  0  0  0  0
    0.0652    1.4204   -4.0732 C   0  0  0  0  0  0  0  0  0  0  0  0
   -0.1400    0.3553   -4.9641 C   0  0  0  0  0  0  0  0  0  0  0  0
   -0.2106   -0.9646   -4.4866 C   0  0  0  0  0  0  0  0  0  0  0  0
    3.1796   -0.1348    1.5691 C   0  0  0  0  0  0  0  0  0  0  0  0
    2.9017    1.4471   -0.3330 C   0  0  0  0  0  0  0  0  0  0  0  0
    0.7633   -0.1908    3.8718 C   0  0  0  0  0  0  0  0  0  0  0  0
    1.9404   -0.7334    4.7039 C   0  0  0  0  0  0  0  0  0  0  0  0
    0.4335    3.7010    0.4299 C   0  0  0  0  0  0  0  0  0  0  0  0
   -0.8738    4.5048    0.5741 C   0  0  0  0  0  0  0  0  0  0  0  0
   -0.5220   -0.2926    4.7169 C   0  0  0  0  0  0  0  0  0  0  0  0
    1.5150    4.6170   -0.1693 C   0  0  0  0  0  0  0  0  0  0  0  0
    1.9514   -1.8189    0.1351 H   0  0  0  0  0  0  0  0  0  0  0  0
    2.4840   -0.9465   -1.3398 H   0  0  0  0  0  0  0  0  0  0  0  0
   -1.4950   -1.8773   -0.8113 H   0  0  0  0  0  0  0  0  0  0  0  0
   -0.1197   -2.7529   -0.1238 H   0  0  0  0  0  0  0  0  0  0  0  0
   -0.8889   -3.2105   -2.7485 H   0  0  0  0  0  0  0  0  0  0  0  0
    0.8570   -3.0379   -2.4258 H   0  0  0  0  0  0  0  0  0  0  0  0
   -0.3888   -1.8004   -5.1799 H   0  0  0  0  0  0  0  0  0  0  0  0
   -0.2633    0.5561   -6.0384 H   0  0  0  0  0  0  0  0  0  0  0  0
    0.0887    2.4533   -4.4488 H   0  0  0  0  0  0  0  0  0  0  0  0
    0.3251    2.0292   -2.0069 H   0  0  0  0  0  0  0  0  0  0  0  0
    2.7604   -0.9871    2.1317 H   0  0  0  0  0  0  0  0  0  0  0  0
    3.4000    0.6905    2.2731 H   0  0  0  0  0  0  0  0  0  0  0  0
    4.1366   -0.4615    1.1158 H   0  0  0  0  0  0  0  0  0  0  0  0
    3.8651    1.0894   -0.7471 H   0  0  0  0  0  0  0  0  0  0  0  0
    3.1182    2.3007    0.3363 H   0  0  0  0  0  0  0  0  0  0  0  0
    2.2769    1.7956   -1.1737 H   0  0  0  0  0  0  0  0  0  0  0  0
    1.2700    1.8724    5.4725 H   0  0  0  0  0  0  0  0  0  0  0  0
    1.0355    5.0893    2.6166 H   0  0  0  0  0  0  0  0  0  0  0  0
    1.4402    4.3046    4.9494 H   0  0  0  0  0  0  0  0  0  0  0  0
    0.6144   -0.8245    2.9755 H   0  0  0  0  0  0  0  0  0  0  0  0
   -1.3969    0.0904    4.1638 H   0  0  0  0  0  0  0  0  0  0  0  0
   -0.4171    0.2773    5.6637 H   0  0  0  0  0  0  0  0  0  0  0  0
   -0.7311   -1.3513    4.9670 H   0  0  0  0  0  0  0  0  0  0  0  0
    1.7760   -1.8058    4.9329 H   0  0  0  0  0  0  0  0  0  0  0  0
    2.0212   -0.2032    5.6751 H   0  0  0  0  0  0  0  0  0  0  0  0
    2.9165   -0.6363    4.1937 H   0  0  0  0  0  0  0  0  0  0  0  0
    0.2247    2.8687   -0.2684 H   0  0  0  0  0  0  0  0  0  0  0  0
    2.4870    4.1096   -0.3086 H   0  0  0  0  0  0  0  0  0  0  0  0
    1.6892    5.5026    0.4761 H   0  0  0  0  0  0  0  0  0  0  0  0
    1.1826    4.9942   -1.1578 H   0  0  0  0  0  0  0  0  0  0  0  0
   -1.2316    4.8316   -0.4216 H   0  0  0  0  0  0  0  0  0  0  0  0
   -0.7169    5.4053    1.2036 H   0  0  0  0  0  0  0  0  0  0  0  0
   -1.6750    3.8913    1.0223 H   0  0  0  0  0  0  0  0  0  0  0  0
  1  2  1  0  0  0  0
  1  5  1  0  0  0  0
  1  3  1  0  0  0  0
  1  4  1  0  0  0  0
  5  6  1  0  0  0  0
  5 16  1  0  0  0  0
  5  7  1  0  0  0  0
  7  9  1  0  0  0  0
  7  8  1  0  0  0  0
  9 10  1  0  0  0  0
  9 11  1  0  0  0  0
  9 12  1  0  0  0  0
 13 14  1  0  0  0  0
 13 15  1  0  0  0  0
  7 13  1  0  0  0  0
 13 16  1  0  0  0  0
 16 17  1  0  0  0  0
 16 18  1  0  0  0  0
 19 20  2  0  0  0  0
 19 24  1  0  0  0  0
 19 63  1  0  0  0  0
 20 21  1  0  0  0  0
 20 42  1  0  0  0  0
 21 22  2  0  0  0  0
 21 25  1  0  0  0  0
 22 23  1  0  0  0  0
 22 40  1  0  0  0  0
 23 24  2  0  0  0  0
 23 62  1  0  0  0  0
 24 64  1  0  0  0  0
 25 26  1  0  0  0  0
 25 29  1  0  0  0  0
 26 27  1  0  0  0  0
 26 38  1  0  0  0  0
 26 39  1  0  0  0  0
 27 28  1  0  0  0  0
 27 46  1  0  0  0  0
 27 47  1  0  0  0  0
 28 29  1  0  0  0  0
 28 30  1  0  0  0  0
 28 33  1  0  0  0  0
 30 31  2  0  0  0  0
 30 34  1  0  0  0  0
 31 32  1  0  0  0  0
 31 37  1  0  0  0  0
 32 33  1  0  0  0  0
 32 50  1  0  0  0  0
 32 51  1  0  0  0  0
 33 48  1  0  0  0  0
 33 49  1  0  0  0  0
 34 35  2  0  0  0  0
 34 55  1  0  0  0  0
 35 36  1  0  0  0  0
 35 54  1  0  0  0  0
 36 37  2  0  0  0  0
 36 53  1  0  0  0  0
 37 52  1  0  0  0  0
 38 56  1  0  0  0  0
 38 57  1  0  0  0  0
 38 58  1  0  0  0  0
 39 59  1  0  0  0  0
 39 60  1  0  0  0  0
 39 61  1  0  0  0  0
 40 41  1  0  0  0  0
 40 44  1  0  0  0  0
 40 65  1  0  0  0  0
 41 69  1  0  0  0  0
 41 70  1  0  0  0  0
 41 71  1  0  0  0  0
 42 43  1  0  0  0  0
 42 45  1  0  0  0  0
 42 72  1  0  0  0  0
 43 76  1  0  0  0  0
 43 77  1  0  0  0  0
 43 78  1  0  0  0  0
 44 66  1  0  0  0  0
 44 67  1  0  0  0  0
 44 68  1  0  0  0  0
 45 73  1  0  0  0  0
 45 74  1  0  0  0  0
 45 75  1  0  0  0  0
 16 29  1  0  0  0  0
M  END
>  <DFT-ENERGY>
-2275.20578941

$$$$
