QIDZOWMODN5_A2
  CDK     02052410453D

 79 83  0  0  0  0  0  0  0  0999 V2000
    0.9914    0.5490   -0.8474 Ru  0  0  0  0  0  0  0  0  0  0  0  0
    2.7692    0.5490   -2.2366 O   0  0  0  0  0  0  0  0  0  0  0  0
    2.2016    1.4823    0.1567 C   0  0  0  0  0  0  0  0  0  0  0  0
    1.9688    1.7752    1.1794 H   0  0  0  0  0  0  0  0  0  0  0  0
    3.0047   -0.2262   -3.4624 C   0  0  0  0  0  0  0  0  0  0  0  0
    3.4188    0.4704   -4.2217 H   0  0  0  0  0  0  0  0  0  0  0  0
    1.5815   -0.6617   -3.7838 C   0  0  0  0  0  0  0  0  0  0  0  0
    1.5174   -1.1753   -4.7466 H   0  0  0  0  0  0  0  0  0  0  0  0
    1.1869   -1.3491   -3.0066 H   0  0  0  0  0  0  0  0  0  0  0  0
    0.9048    0.2156   -3.8105 H   0  0  0  0  0  0  0  0  0  0  0  0
    3.9372   -1.3766   -3.1283 C   0  0  0  0  0  0  0  0  0  0  0  0
    3.9371   -2.1427   -3.9101 H   0  0  0  0  0  0  0  0  0  0  0  0
    4.9701   -1.0508   -2.9675 H   0  0  0  0  0  0  0  0  0  0  0  0
    3.6097   -1.8674   -2.1904 H   0  0  0  0  0  0  0  0  0  0  0  0
    3.7614    1.3474   -1.7316 C   0  0  0  0  0  0  0  0  0  0  0  0
    4.9305    1.6962   -2.3846 C   0  0  0  0  0  0  0  0  0  0  0  0
    5.1491    1.3459   -3.3907 H   0  0  0  0  0  0  0  0  0  0  0  0
    5.8317    2.5272   -1.7271 C   0  0  0  0  0  0  0  0  0  0  0  0
    6.7543    2.8149   -2.2359 H   0  0  0  0  0  0  0  0  0  0  0  0
    5.5817    2.9988   -0.4418 C   0  0  0  0  0  0  0  0  0  0  0  0
    6.3064    3.6437    0.0525 H   0  0  0  0  0  0  0  0  0  0  0  0
    4.4120    2.6385    0.1998 C   0  0  0  0  0  0  0  0  0  0  0  0
    4.2188    2.9931    1.2111 H   0  0  0  0  0  0  0  0  0  0  0  0
    3.4765    1.8231   -0.4396 C   0  0  0  0  0  0  0  0  0  0  0  0
    1.5909   -1.6426   -0.2872 Cl  0  0  0  0  0  0  0  0  0  0  0  0
    0.1608    2.2704   -2.2189 Cl  0  0  0  0  0  0  0  0  0  0  0  0
   -0.5430    0.5553    0.3369 C   0  0  0  0  0  0  0  0  0  0  0  0
   -0.9223    1.6191    1.3949 C   0  0  0  0  0  0  0  0  0  0  0  0
   -2.4534    1.4135    1.6272 C   0  0  0  0  0  0  0  0  0  0  0  0
   -2.7288    1.5512    2.6848 H   0  0  0  0  0  0  0  0  0  0  0  0
   -3.0319    2.1716    1.0710 H   0  0  0  0  0  0  0  0  0  0  0  0
   -2.7898   -0.0171    1.1311 C   0  0  0  0  0  0  0  0  0  0  0  0
   -1.5735   -0.3353    0.2594 N   0  0  0  0  0  0  0  0  0  0  0  0
   -0.6578    3.0146    0.8221 C   0  0  0  0  0  0  0  0  0  0  0  0
    0.4026    3.1576    0.5537 H   0  0  0  0  0  0  0  0  0  0  0  0
   -0.9314    3.8094    1.5219 H   0  0  0  0  0  0  0  0  0  0  0  0
   -1.2195    3.1794   -0.1113 H   0  0  0  0  0  0  0  0  0  0  0  0
   -0.1876    1.4070    2.7143 C   0  0  0  0  0  0  0  0  0  0  0  0
    0.6657    0.3111    2.9122 C   0  0  0  0  0  0  0  0  0  0  0  0
    0.8675   -0.3957    2.0947 H   0  0  0  0  0  0  0  0  0  0  0  0
    1.2928    0.1169    4.1470 C   0  0  0  0  0  0  0  0  0  0  0  0
    1.9542   -0.7381    4.2853 H   0  0  0  0  0  0  0  0  0  0  0  0
    1.0791    1.0145    5.1962 C   0  0  0  0  0  0  0  0  0  0  0  0
    1.5675    0.8614    6.1561 H   0  0  0  0  0  0  0  0  0  0  0  0
    0.2371    2.1146    5.0031 C   0  0  0  0  0  0  0  0  0  0  0  0
    0.0719    2.8216    5.8144 H   0  0  0  0  0  0  0  0  0  0  0  0
   -0.3925    2.3098    3.7721 C   0  0  0  0  0  0  0  0  0  0  0  0
   -1.0447    3.1709    3.6331 H   0  0  0  0  0  0  0  0  0  0  0  0
   -2.9095   -0.9818    2.3102 C   0  0  0  0  0  0  0  0  0  0  0  0
   -3.1017   -2.0156    1.9801 H   0  0  0  0  0  0  0  0  0  0  0  0
   -3.7342   -0.6967    2.9723 H   0  0  0  0  0  0  0  0  0  0  0  0
   -1.9931   -0.9984    2.9169 H   0  0  0  0  0  0  0  0  0  0  0  0
   -4.0675   -0.0471    0.2896 C   0  0  0  0  0  0  0  0  0  0  0  0
   -4.9419    0.2247    0.8906 H   0  0  0  0  0  0  0  0  0  0  0  0
   -4.2533   -1.0458   -0.1281 H   0  0  0  0  0  0  0  0  0  0  0  0
   -4.0196    0.6470   -0.5596 H   0  0  0  0  0  0  0  0  0  0  0  0
   -1.5856   -1.5086   -0.6028 C   0  0  0  0  0  0  0  0  0  0  0  0
   -1.2480   -2.7912   -0.1083 C   0  0  0  0  0  0  0  0  0  0  0  0
   -1.4032   -3.9023   -0.9575 C   0  0  0  0  0  0  0  0  0  0  0  0
   -1.1521   -4.8946   -0.5844 H   0  0  0  0  0  0  0  0  0  0  0  0
   -1.8467   -3.7508   -2.2684 C   0  0  0  0  0  0  0  0  0  0  0  0
   -1.9686   -4.6242   -2.9078 H   0  0  0  0  0  0  0  0  0  0  0  0
   -2.1121   -2.4762   -2.7709 C   0  0  0  0  0  0  0  0  0  0  0  0
   -2.4219   -2.3589   -3.8083 H   0  0  0  0  0  0  0  0  0  0  0  0
   -1.9760   -1.3428   -1.9576 C   0  0  0  0  0  0  0  0  0  0  0  0
   -0.6752   -3.0457    1.2612 C   0  0  0  0  0  0  0  0  0  0  0  0
   -0.4791   -2.0952    1.7993 H   0  0  0  0  0  0  0  0  0  0  0  0
    0.3369   -3.5008    1.1373 H   0  0  0  0  0  0  0  0  0  0  0  0
   -1.5467   -3.9755    2.1047 C   0  0  0  0  0  0  0  0  0  0  0  0
   -2.5737   -3.5903    2.1941 H   0  0  0  0  0  0  0  0  0  0  0  0
   -1.1406   -4.0813    3.1169 H   0  0  0  0  0  0  0  0  0  0  0  0
   -1.6108   -4.9795    1.6701 H   0  0  0  0  0  0  0  0  0  0  0  0
   -2.1866    0.0157   -2.5737 C   0  0  0  0  0  0  0  0  0  0  0  0
   -1.3191    0.2312   -3.2449 H   0  0  0  0  0  0  0  0  0  0  0  0
   -2.1372    0.8303   -1.8163 H   0  0  0  0  0  0  0  0  0  0  0  0
   -3.4946    0.1328   -3.3533 C   0  0  0  0  0  0  0  0  0  0  0  0
   -4.3572   -0.1563   -2.7425 H   0  0  0  0  0  0  0  0  0  0  0  0
   -3.4979   -0.5034   -4.2460 H   0  0  0  0  0  0  0  0  0  0  0  0
   -3.6524    1.1652   -3.6900 H   0  0  0  0  0  0  0  0  0  0  0  0
  2  1  1  0  0  0  0
  3  1  2  0  0  0  0
  4  3  1  0  0  0  0
  5  2  1  0  0  0  0
  6  5  1  0  0  0  0
  7  5  1  0  0  0  0
  8  7  1  0  0  0  0
  9  7  1  0  0  0  0
 10  7  1  0  0  0  0
 11  5  1  0  0  0  0
 12 11  1  0  0  0  0
 13 11  1  0  0  0  0
 14 11  1  0  0  0  0
 15  2  1  0  0  0  0
 15 24  1  0  0  0  0
 16 15  2  0  0  0  0
 17 16  1  0  0  0  0
 18 16  1  0  0  0  0
 19 18  1  0  0  0  0
 20 18  2  0  0  0  0
 21 20  1  0  0  0  0
 22 20  1  0  0  0  0
 22 24  2  0  0  0  0
 23 22  1  0  0  0  0
 24  3  1  0  0  0  0
  1 25  1  0  0  0  0
  1 26  1  0  0  0  0
 27 33  1  0  0  0  0
 28 29  1  0  0  0  0
 28 34  1  0  0  0  0
 28 38  1  0  0  0  0
 29 30  1  0  0  0  0
 29 31  1  0  0  0  0
 29 32  1  0  0  0  0
 32 33  1  0  0  0  0
 32 49  1  0  0  0  0
 32 53  1  0  0  0  0
 33 57  1  0  0  0  0
 34 35  1  0  0  0  0
 34 36  1  0  0  0  0
 34 37  1  0  0  0  0
 38 39  1  0  0  0  0
 38 47  2  0  0  0  0
 39 40  1  0  0  0  0
 39 41  2  0  0  0  0
 41 42  1  0  0  0  0
 41 43  1  0  0  0  0
 43 44  1  0  0  0  0
 43 45  2  0  0  0  0
 45 46  1  0  0  0  0
 45 47  1  0  0  0  0
 47 48  1  0  0  0  0
 49 50  1  0  0  0  0
 49 51  1  0  0  0  0
 49 52  1  0  0  0  0
 53 54  1  0  0  0  0
 53 55  1  0  0  0  0
 53 56  1  0  0  0  0
 57 58  1  0  0  0  0
 57 65  2  0  0  0  0
 58 59  2  0  0  0  0
 58 66  1  0  0  0  0
 59 60  1  0  0  0  0
 59 61  1  0  0  0  0
 61 62  1  0  0  0  0
 61 63  2  0  0  0  0
 63 64  1  0  0  0  0
 63 65  1  0  0  0  0
 65 73  1  0  0  0  0
 66 67  1  0  0  0  0
 66 68  1  0  0  0  0
 66 69  1  0  0  0  0
 69 70  1  0  0  0  0
 69 71  1  0  0  0  0
 69 72  1  0  0  0  0
 73 74  1  0  0  0  0
 73 75  1  0  0  0  0
 73 76  1  0  0  0  0
 76 77  1  0  0  0  0
 76 78  1  0  0  0  0
 76 79  1  0  0  0  0
 27 28  1  0  0  0  0
  1 27  1  0  0  0  0
M  END
> <FrozenCore-PM6_ENERGY>
25.186

> <RMSD_CONF_CG-CS>
1.070584

> <RMSD_CONF_GO-CS>
0.000000

> <UID>


> <freeEnergyA>
-2425.34040291

> <freeEnergyF>
-2425.31758909

> <freeEnergyE>
-2425.34040291

> <freeEnergyC>
-2080.08603606

> <freeEnergyL>
-947.467073526

> <freeEnergyX>
-2158.61318103

> <freeEnergyZ>
-2080.05616654

> <freeEnergyD>
-2080.10813519

> <G_Propene>
-117.738020895

> <G_Ethene>
-78.4716324751

> <G_HoveydaProd>
-502.204109499

> <G_SIMes>
-924.27249048

> <G_HG_RuCl2_SIMes>
-2402.13728523

> <DG_referenceProductionBarrier>
0.01468968

> <hartree_to_kcalmol>
627.49467516

> <DFT_IDENTIFIER>
1707179417284

> <DFT_MACHINE>
158.36.42.38

> <XTB_IDENTIFIER>
NREC

> <XTB_MACHINE>
NREC

> <DE_Synth>
-5.35543738943949144

> <DESCRIPTOR_DEFINITION_1>
desc1=( echo "1 * ( e( $hartree_to_kcalmol * ( ( $freeEnergyZ - $freeEnergyD ) - ( $freeEnergyX + 2*$G_Ethene - $freeEnergyD - 2*$G_Propene ) - $DDG_reference_HGII ) / $kT ) ) " | bc -l )

> <DESCRIPTOR_DEFINITION_2>
desc2=$( echo "1 * ( $hartree_to_kcalmol * ( ( $freeEnergyZ - $freeEnergyD ) - ( $freeEnergyX + 2*$G_Ethene - $freeEnergyD - 2*$G_Propene ) ) )" | bc -l )

> <DESCRIPTOR_DEFINITION_3>
desc3=$( echo "1 * $hartree_to_kcalmol * ( $DG_referenceProductionBarrier - ( $freeEnergyX + 2*$G_Ethene - $freeEnergyD - 2*$G_Propene ) )" | bc -l )

> <WEIGHT_DEFINITION_1>
w1=$( echo "1 / ( 1 + e( $hartree_to_kcalmol * ( ( ( $freeEnergyX + 2*$G_Ethene - $freeEnergyD - 2*$G_Propene ) ) - ( $DG_referenceProductionBarrier + $magnitude4 ) ) / $kT ) )" | bc -l )

> <WEIGHT_DEFINITION_2>
w2=$( echo "1 / ( 1 + e( $hartree_to_kcalmol * ( ABS( $freeEnergyC + $G_HoveydaProd - $freeEnergyA - 2*${G_Ethene} - $DG_referencePrecursorStabilityHII ) - ( $DDG_referencePrecursorStability + $magnitude1 ) ) / $kT ) )" | bc -l )

> <WEIGHT_DEFINITION_3>
w3=$( echo "1 / ( 1 + e( $hartree_to_kcalmol * ( ( $freeEnergyE + $G_SIMes - $G_HG_RuCl2_SIMes - $freeEnergyL ) - ( $DG_referenceSynt  + $magnitude1 ) ) / $kT ) )" | bc -l )

> <WEIGHT_DEFINITION_4>
w4=$( echo "1 / ( 1 + e( $hartree_to_kcalmol * ( - ( $freeEnergyF - $freeEnergyA ) + $magnitude2 ) / $kT ) )" | bc -l )

> <FITNESS_DEFINITION>
fitness=$( echo "( $desc1 + $desc2 + $desc3 ) * $w1 * $w2 * $w3 * $w4" | bc -l )

> <DESCRIPTOR_1>
7.56155543992052352942

> <DESCRIPTOR_2>
15.208996438890709032

> <DESCRIPTOR_3>
0.0000000001

> <WEIGHT_1>
.97599506561002653900

> <WEIGHT_2>
.99999998720083258394

> <WEIGHT_3>
.99999999999999769554

> <WEIGHT_4>
.99999998977870992585

> <FITNESS>
22.22394576342902271090

$$$$
