
  CDK     02052416153D

 71 74  0  0  0  0  0  0  0  0999 V2000
   -0.9485   -4.0464   -2.1905 C   0  0  0  0  0  0  0  0  0  0  0  0
    0.1144   -4.1153   -2.4802 H   0  0  0  0  0  0  0  0  0  0  0  0
   -1.4990   -4.9405   -2.5588 H   0  0  0  0  0  0  0  0  0  0  0  0
   -1.3876   -3.1709   -2.7142 H   0  0  0  0  0  0  0  0  0  0  0  0
   -1.1286   -3.9504   -0.6925 C   0  0  0  0  0  0  0  0  0  0  0  0
   -2.1760   -3.9714   -0.3384 H   0  0  0  0  0  0  0  0  0  0  0  0
   -0.1737   -4.4254    0.2541 C   0  0  0  0  0  0  0  0  0  0  0  0
    0.8295   -4.6678   -0.1375 H   0  0  0  0  0  0  0  0  0  0  0  0
   -0.6352   -5.1254    1.5101 C   0  0  0  0  0  0  0  0  0  0  0  0
    0.1690   -5.2229    2.2634 H   0  0  0  0  0  0  0  0  0  0  0  0
   -0.9686   -6.1509    1.2404 H   0  0  0  0  0  0  0  0  0  0  0  0
   -1.4970   -4.5927    1.9587 H   0  0  0  0  0  0  0  0  0  0  0  0
    0.6396   -2.5765    1.3969 C   0  0  0  0  0  0  0  0  0  0  0  0
    0.1676   -2.7231    2.3898 H   0  0  0  0  0  0  0  0  0  0  0  0
    1.7369   -2.7183    1.3063 H   0  0  0  0  0  0  0  0  0  0  0  0
   -0.3558   -2.0287   -0.0490 Ru  0  0  0  0  0  0  0  0  0  0  0  0
   -2.3238   -2.0142    1.3587 Cl  0  0  0  0  0  0  0  0  0  0  0  0
    1.6567   -2.2799   -1.3517 Cl  0  0  0  0  0  0  0  0  0  0  0  0
   -0.5842   -0.0843   -0.2525 C   0  0  0  0  0  0  0  0  0  0  0  0
   -1.6136    0.5783   -1.2016 C   0  0  0  0  0  0  0  0  0  0  0  0
   -1.9462    1.8590   -0.3944 C   0  0  0  0  0  0  0  0  0  0  0  0
   -2.3419    2.6790   -1.0200 H   0  0  0  0  0  0  0  0  0  0  0  0
   -2.7096    1.6032    0.3677 H   0  0  0  0  0  0  0  0  0  0  0  0
   -0.6403    2.2553    0.3152 C   0  0  0  0  0  0  0  0  0  0  0  0
   -0.0367    0.8708    0.5108 N   0  0  0  0  0  0  0  0  0  0  0  0
   -2.8580   -0.2944   -1.4513 C   0  0  0  0  0  0  0  0  0  0  0  0
   -2.5816   -1.2196   -1.9977 H   0  0  0  0  0  0  0  0  0  0  0  0
   -3.5758    0.2588   -2.0885 H   0  0  0  0  0  0  0  0  0  0  0  0
   -3.3404   -0.5898   -0.5020 H   0  0  0  0  0  0  0  0  0  0  0  0
   -0.9945    0.9153   -2.5725 C   0  0  0  0  0  0  0  0  0  0  0  0
    0.1576    0.2713   -3.0570 C   0  0  0  0  0  0  0  0  0  0  0  0
    0.6673   -0.4906   -2.4491 H   0  0  0  0  0  0  0  0  0  0  0  0
    0.6713    0.5819   -4.3270 C   0  0  0  0  0  0  0  0  0  0  0  0
    1.5780    0.0656   -4.6753 H   0  0  0  0  0  0  0  0  0  0  0  0
    0.0386    1.5315   -5.1399 C   0  0  0  0  0  0  0  0  0  0  0  0
    0.4431    1.7760   -6.1328 H   0  0  0  0  0  0  0  0  0  0  0  0
   -1.1264    2.1623   -4.6749 C   0  0  0  0  0  0  0  0  0  0  0  0
   -1.6445    2.9010   -5.3043 H   0  0  0  0  0  0  0  0  0  0  0  0
   -1.6371    1.8550   -3.4068 C   0  0  0  0  0  0  0  0  0  0  0  0
   -2.5554    2.3578   -3.0684 H   0  0  0  0  0  0  0  0  0  0  0  0
    0.2762    3.1409   -0.5423 C   0  0  0  0  0  0  0  0  0  0  0  0
    1.2352    3.3249   -0.0210 H   0  0  0  0  0  0  0  0  0  0  0  0
   -0.2152    4.1216   -0.6990 H   0  0  0  0  0  0  0  0  0  0  0  0
    0.4843    2.7015   -1.5336 H   0  0  0  0  0  0  0  0  0  0  0  0
   -0.8950    2.9578    1.6490 C   0  0  0  0  0  0  0  0  0  0  0  0
   -1.3076    3.9653    1.4436 H   0  0  0  0  0  0  0  0  0  0  0  0
    0.0435    3.0873    2.2229 H   0  0  0  0  0  0  0  0  0  0  0  0
   -1.6235    2.4123    2.2736 H   0  0  0  0  0  0  0  0  0  0  0  0
    1.0582    0.6100    1.4231 C   0  0  0  0  0  0  0  0  0  0  0  0
    2.3848    0.6294    0.9197 C   0  0  0  0  0  0  0  0  0  0  0  0
    3.4313    0.3184    1.8086 C   0  0  0  0  0  0  0  0  0  0  0  0
    4.4630    0.3109    1.4282 H   0  0  0  0  0  0  0  0  0  0  0  0
    3.1808   -0.0087    3.1438 C   0  0  0  0  0  0  0  0  0  0  0  0
    4.0133   -0.2617    3.8166 H   0  0  0  0  0  0  0  0  0  0  0  0
    1.8648   -0.0332    3.6149 C   0  0  0  0  0  0  0  0  0  0  0  0
    1.6634   -0.3152    4.6587 H   0  0  0  0  0  0  0  0  0  0  0  0
    0.7773    0.2700    2.7735 C   0  0  0  0  0  0  0  0  0  0  0  0
    2.7307    0.8979   -0.5287 C   0  0  0  0  0  0  0  0  0  0  0  0
    1.8160    1.0932   -1.1116 H   0  0  0  0  0  0  0  0  0  0  0  0
    3.1350   -0.0470   -0.9480 H   0  0  0  0  0  0  0  0  0  0  0  0
    3.7379    2.0356   -0.7376 C   0  0  0  0  0  0  0  0  0  0  0  0
    3.3618    2.9993   -0.3369 H   0  0  0  0  0  0  0  0  0  0  0  0
    3.9427    2.1748   -1.8179 H   0  0  0  0  0  0  0  0  0  0  0  0
    4.7071    1.8303   -0.2400 H   0  0  0  0  0  0  0  0  0  0  0  0
   -0.6213    0.1499    3.3400 C   0  0  0  0  0  0  0  0  0  0  0  0
   -0.7986   -0.9179    3.5886 H   0  0  0  0  0  0  0  0  0  0  0  0
   -1.3722    0.3613    2.5595 H   0  0  0  0  0  0  0  0  0  0  0  0
   -0.8705    1.0018    4.5915 C   0  0  0  0  0  0  0  0  0  0  0  0
   -0.7210    2.0819    4.3930 H   0  0  0  0  0  0  0  0  0  0  0  0
   -0.1904    0.7255    5.4222 H   0  0  0  0  0  0  0  0  0  0  0  0
   -1.9085    0.8602    4.9535 H   0  0  0  0  0  0  0  0  0  0  0  0
  1  2  1  0  0  0  0
  1  5  1  0  0  0  0
  3  1  1  0  0  0  0
  4  1  1  0  0  0  0
  5  6  1  0  0  0  0
  5 16  1  0  0  0  0
  5  7  1  0  0  0  0
  7  9  1  0  0  0  0
  7  8  1  0  0  0  0
  9 10  1  0  0  0  0
 11  9  1  0  0  0  0
 12  9  1  0  0  0  0
 13 14  1  0  0  0  0
 13 15  1  0  0  0  0
 13  7  1  0  0  0  0
 16 13  1  0  0  0  0
 16 17  1  0  0  0  0
 16 18  1  0  0  0  0
 19 25  1  0  0  0  0
 20 21  1  0  0  0  0
 20 26  1  0  0  0  0
 20 30  1  0  0  0  0
 21 22  1  0  0  0  0
 21 23  1  0  0  0  0
 21 24  1  0  0  0  0
 24 25  1  0  0  0  0
 24 41  1  0  0  0  0
 24 45  1  0  0  0  0
 25 49  1  0  0  0  0
 26 27  1  0  0  0  0
 26 28  1  0  0  0  0
 26 29  1  0  0  0  0
 30 31  1  0  0  0  0
 30 39  2  0  0  0  0
 31 32  1  0  0  0  0
 31 33  2  0  0  0  0
 33 34  1  0  0  0  0
 33 35  1  0  0  0  0
 35 36  1  0  0  0  0
 35 37  2  0  0  0  0
 37 38  1  0  0  0  0
 37 39  1  0  0  0  0
 39 40  1  0  0  0  0
 41 42  1  0  0  0  0
 41 43  1  0  0  0  0
 41 44  1  0  0  0  0
 45 46  1  0  0  0  0
 45 47  1  0  0  0  0
 45 48  1  0  0  0  0
 49 50  1  0  0  0  0
 49 57  2  0  0  0  0
 50 51  2  0  0  0  0
 50 58  1  0  0  0  0
 51 52  1  0  0  0  0
 51 53  1  0  0  0  0
 53 54  1  0  0  0  0
 53 55  2  0  0  0  0
 55 56  1  0  0  0  0
 55 57  1  0  0  0  0
 57 65  1  0  0  0  0
 58 59  1  0  0  0  0
 58 60  1  0  0  0  0
 58 61  1  0  0  0  0
 61 62  1  0  0  0  0
 61 63  1  0  0  0  0
 61 64  1  0  0  0  0
 65 66  1  0  0  0  0
 65 67  1  0  0  0  0
 65 68  1  0  0  0  0
 68 69  1  0  0  0  0
 68 70  1  0  0  0  0
 68 71  1  0  0  0  0
 19 20  1  0  0  0  0
 16 19  1  0  0  0  0
M  END
>  <DFT-ENERGY>
-2158.6131812

$$$$
