
  CDK     07292401513D

 72 77  0  0  0  0  0  0  0  0999 V2000
    1.6232   -1.1637   -2.5077 H   0  0  0  0  0  0  0  0  0  0  0  0
    2.8528   -1.1405   -2.5469 C   0  0  0  0  0  0  0  0  0  0  0  0
    2.8218   -0.9017   -3.6299 H   0  0  0  0  0  0  0  0  0  0  0  0
    3.1264   -2.5052   -2.0327 C   0  0  0  0  0  0  0  0  0  0  0  0
    4.0610   -2.6928   -1.4844 H   0  0  0  0  0  0  0  0  0  0  0  0
    2.7405   -3.3419   -2.6394 H   0  0  0  0  0  0  0  0  0  0  0  0
    1.7018   -1.6006   -0.7904 Ru  0  0  0  0  0  0  0  0  0  0  0  0
    3.0342   -0.1157   -1.4849 C   0  0  0  0  0  0  0  0  0  0  0  0
    3.9764   -0.1145   -0.9188 H   0  0  0  0  0  0  0  0  0  0  0  0
    2.5907    0.8767   -1.6794 H   0  0  0  0  0  0  0  0  0  0  0  0
    3.4358   -1.8493    0.8690 Cl  0  0  0  0  0  0  0  0  0  0  0  0
   -0.1719   -2.5152   -1.9897 Cl  0  0  0  0  0  0  0  0  0  0  0  0
    0.4993    2.5715    2.0003 C   0  0  0  0  0  0  0  0  0  0  0  0
    0.6869    1.1764    2.0017 C   0  0  0  0  0  0  0  0  0  0  0  0
   -0.1695    0.3817    1.1837 C   0  0  0  0  0  0  0  0  0  0  0  0
   -1.0836    0.9969    0.2798 C   0  0  0  0  0  0  0  0  0  0  0  0
   -1.2173    2.3979    0.3220 C   0  0  0  0  0  0  0  0  0  0  0  0
   -0.4667    3.1825    1.1993 C   0  0  0  0  0  0  0  0  0  0  0  0
   -0.2045   -1.0641    1.3942 N   0  0  0  0  0  0  0  0  0  0  0  0
   -1.2449   -1.6422    2.3663 C   0  0  0  0  0  0  0  0  0  0  0  0
   -1.0697   -3.1501    2.1092 C   0  0  0  0  0  0  0  0  0  0  0  0
    0.3469   -3.3409    1.4973 C   0  0  0  0  0  0  0  0  0  0  0  0
    0.6117   -1.9771    0.8656 C   0  0  0  0  0  0  0  0  0  0  0  0
    1.3474   -3.8064    2.5772 C   0  0  0  0  0  0  0  0  0  0  0  0
    1.4593   -5.2124    2.5278 C   0  0  0  0  0  0  0  0  0  0  0  0
    0.6512   -5.7722    1.3842 C   0  0  0  0  0  0  0  0  0  0  0  0
    0.4234   -4.5318    0.5036 C   0  0  0  0  0  0  0  0  0  0  0  0
    2.0271   -3.0901    3.5701 C   0  0  0  0  0  0  0  0  0  0  0  0
    2.8065   -3.7809    4.5121 C   0  0  0  0  0  0  0  0  0  0  0  0
    2.9095   -5.1805    4.4665 C   0  0  0  0  0  0  0  0  0  0  0  0
    2.2340   -5.9019    3.4697 C   0  0  0  0  0  0  0  0  0  0  0  0
   -2.6558   -1.1820    2.0040 C   0  0  0  0  0  0  0  0  0  0  0  0
   -0.9342   -1.2190    3.8037 C   0  0  0  0  0  0  0  0  0  0  0  0
   -1.8160    0.2606   -0.8344 C   0  0  0  0  0  0  0  0  0  0  0  0
   -3.3237    0.5544   -0.8983 C   0  0  0  0  0  0  0  0  0  0  0  0
    1.8742    0.6345    2.7848 C   0  0  0  0  0  0  0  0  0  0  0  0
    3.1739    1.2175    2.1953 C   0  0  0  0  0  0  0  0  0  0  0  0
   -1.1609    0.6513   -2.1756 C   0  0  0  0  0  0  0  0  0  0  0  0
    1.8145    0.9266    4.2928 C   0  0  0  0  0  0  0  0  0  0  0  0
   -1.8215   -3.4797    1.3649 H   0  0  0  0  0  0  0  0  0  0  0  0
   -1.2118   -3.7385    3.0340 H   0  0  0  0  0  0  0  0  0  0  0  0
    1.3073   -4.3694   -0.1459 H   0  0  0  0  0  0  0  0  0  0  0  0
   -0.4632   -4.5837   -0.1519 H   0  0  0  0  0  0  0  0  0  0  0  0
    1.1657   -6.5923    0.8457 H   0  0  0  0  0  0  0  0  0  0  0  0
   -0.3125   -6.1867    1.7570 H   0  0  0  0  0  0  0  0  0  0  0  0
    2.3192   -6.9980    3.4191 H   0  0  0  0  0  0  0  0  0  0  0  0
    3.5301   -5.7100    5.2040 H   0  0  0  0  0  0  0  0  0  0  0  0
    3.3531   -3.2142    5.2795 H   0  0  0  0  0  0  0  0  0  0  0  0
    1.9945   -1.9954    3.6022 H   0  0  0  0  0  0  0  0  0  0  0  0
   -2.9270   -1.4787    0.9754 H   0  0  0  0  0  0  0  0  0  0  0  0
   -2.7729   -0.0864    2.1097 H   0  0  0  0  0  0  0  0  0  0  0  0
   -3.3675   -1.6695    2.6998 H   0  0  0  0  0  0  0  0  0  0  0  0
   -1.7058   -1.6425    4.4765 H   0  0  0  0  0  0  0  0  0  0  0  0
   -0.9685   -0.1169    3.9017 H   0  0  0  0  0  0  0  0  0  0  0  0
    0.0497   -1.5847    4.1434 H   0  0  0  0  0  0  0  0  0  0  0  0
   -1.9265    2.8800   -0.3655 H   0  0  0  0  0  0  0  0  0  0  0  0
    1.1452    3.1894    2.6402 H   0  0  0  0  0  0  0  0  0  0  0  0
   -0.6075    4.2727    1.2304 H   0  0  0  0  0  0  0  0  0  0  0  0
   -1.6614   -0.8277   -0.7067 H   0  0  0  0  0  0  0  0  0  0  0  0
   -0.0652    0.4925   -2.1361 H   0  0  0  0  0  0  0  0  0  0  0  0
   -1.3496    1.7193   -2.4110 H   0  0  0  0  0  0  0  0  0  0  0  0
   -1.5624    0.0278   -2.9981 H   0  0  0  0  0  0  0  0  0  0  0  0
   -3.7915   -0.0600   -1.6938 H   0  0  0  0  0  0  0  0  0  0  0  0
   -3.5225    1.6165   -1.1497 H   0  0  0  0  0  0  0  0  0  0  0  0
   -3.8434    0.3352    0.0536 H   0  0  0  0  0  0  0  0  0  0  0  0
    1.9238   -0.4569    2.6202 H   0  0  0  0  0  0  0  0  0  0  0  0
    2.7015    0.4907    4.7962 H   0  0  0  0  0  0  0  0  0  0  0  0
    0.9108    0.5105    4.7751 H   0  0  0  0  0  0  0  0  0  0  0  0
    1.8289    2.0181    4.4921 H   0  0  0  0  0  0  0  0  0  0  0  0
    4.0531    0.7185    2.6481 H   0  0  0  0  0  0  0  0  0  0  0  0
    3.2493    2.3068    2.3941 H   0  0  0  0  0  0  0  0  0  0  0  0
    3.2223    1.0510    1.1040 H   0  0  0  0  0  0  0  0  0  0  0  0
  1  2  1  0  0  0  0
  1  7  1  0  0  0  0
  2  3  1  0  0  0  0
  2  4  1  0  0  0  0
  4  5  1  0  0  0  0
  4  6  1  0  0  0  0
  7  8  1  0  0  0  0
  4  7  1  0  0  0  0
  2  8  1  0  0  0  0
  8  9  1  0  0  0  0
  8 10  1  0  0  0  0
  7 11  1  0  0  0  0
  7 12  1  0  0  0  0
 13 14  2  0  0  0  0
 13 18  2  0  0  0  0
 13 57  1  0  0  0  0
 14 15  2  0  0  0  0
 14 36  1  0  0  0  0
 15 16  2  0  0  0  0
 15 19  1  0  0  0  0
 16 17  2  0  0  0  0
 16 34  1  0  0  0  0
 17 18  2  0  0  0  0
 17 56  1  0  0  0  0
 18 58  1  0  0  0  0
 19 20  1  0  0  0  0
 19 23  1  0  0  0  0
 20 21  1  0  0  0  0
 20 32  1  0  0  0  0
 20 33  1  0  0  0  0
 21 22  1  0  0  0  0
 21 40  1  0  0  0  0
 21 41  1  0  0  0  0
 22 23  1  0  0  0  0
 22 24  1  0  0  0  0
 22 27  1  0  0  0  0
 24 25  2  0  0  0  0
 24 28  2  0  0  0  0
 25 26  1  0  0  0  0
 25 31  2  0  0  0  0
 26 27  1  0  0  0  0
 26 44  1  0  0  0  0
 26 45  1  0  0  0  0
 27 42  1  0  0  0  0
 27 43  1  0  0  0  0
 28 29  2  0  0  0  0
 28 49  1  0  0  0  0
 29 30  2  0  0  0  0
 29 48  1  0  0  0  0
 30 31  2  0  0  0  0
 30 47  1  0  0  0  0
 31 46  1  0  0  0  0
 32 50  1  0  0  0  0
 32 51  1  0  0  0  0
 32 52  1  0  0  0  0
 33 53  1  0  0  0  0
 33 54  1  0  0  0  0
 33 55  1  0  0  0  0
 34 35  1  0  0  0  0
 34 38  1  0  0  0  0
 34 59  1  0  0  0  0
 35 63  1  0  0  0  0
 35 64  1  0  0  0  0
 35 65  1  0  0  0  0
 36 37  1  0  0  0  0
 36 39  1  0  0  0  0
 36 66  1  0  0  0  0
 37 70  1  0  0  0  0
 37 71  1  0  0  0  0
 37 72  1  0  0  0  0
 38 60  1  0  0  0  0
 38 61  1  0  0  0  0
 38 62  1  0  0  0  0
 39 67  1  0  0  0  0
 39 68  1  0  0  0  0
 39 69  1  0  0  0  0
  7 23  1  0  0  0  0
M  END
>  <DFT-ENERGY>
-2196.65149775

$$$$
