
  CDK     07292405123D

 72 76  0  0  0  0  0  0  0  0999 V2000
    1.6549   -0.7710   -0.9499 Ru  0  0  0  0  0  0  0  0  0  0  0  0
    3.0222   -0.8004   -2.3727 C   0  0  0  0  0  0  0  0  0  0  0  0
    2.6244   -1.0673   -3.3668 H   0  0  0  0  0  0  0  0  0  0  0  0
    3.4636   -2.0361   -1.5047 C   0  0  0  0  0  0  0  0  0  0  0  0
    3.3717   -2.9307   -2.1464 H   0  0  0  0  0  0  0  0  0  0  0  0
    2.6004   -2.3258   -0.2039 C   0  0  0  0  0  0  0  0  0  0  0  0
    3.1558   -2.1396    0.7317 H   0  0  0  0  0  0  0  0  0  0  0  0
    2.0499   -3.2811   -0.2602 H   0  0  0  0  0  0  0  0  0  0  0  0
    4.4901   -1.8255   -1.1535 H   0  0  0  0  0  0  0  0  0  0  0  0
    3.7394    0.0374   -2.3448 H   0  0  0  0  0  0  0  0  0  0  0  0
    0.3734   -2.2950   -2.2814 Cl  0  0  0  0  0  0  0  0  0  0  0  0
    3.1390    0.6445    0.2792 Cl  0  0  0  0  0  0  0  0  0  0  0  0
   -2.2293   -2.4443    2.5318 C   0  0  0  0  0  0  0  0  0  0  0  0
   -1.8847   -1.8106    1.3227 C   0  0  0  0  0  0  0  0  0  0  0  0
   -1.0910   -0.6294    1.3893 C   0  0  0  0  0  0  0  0  0  0  0  0
   -0.5440   -0.1845    2.6280 C   0  0  0  0  0  0  0  0  0  0  0  0
   -0.9305   -0.8611    3.8012 C   0  0  0  0  0  0  0  0  0  0  0  0
   -1.7926   -1.9582    3.7656 C   0  0  0  0  0  0  0  0  0  0  0  0
   -0.9559    0.2154    0.2111 N   0  0  0  0  0  0  0  0  0  0  0  0
   -2.0417    1.2583   -0.0776 C   0  0  0  0  0  0  0  0  0  0  0  0
   -1.6160    1.7199   -1.4808 C   0  0  0  0  0  0  0  0  0  0  0  0
   -0.0896    1.5153   -1.5537 C   0  0  0  0  0  0  0  0  0  0  0  0
    0.0866    0.3084   -0.6190 C   0  0  0  0  0  0  0  0  0  0  0  0
    0.4575    1.3175   -2.9629 C   0  0  0  0  0  0  0  0  0  0  0  0
    1.5834    2.1292   -3.1965 C   0  0  0  0  0  0  0  0  0  0  0  0
    1.9451    2.9317   -1.9755 C   0  0  0  0  0  0  0  0  0  0  0  0
    0.7458    2.7404   -1.0204 C   0  0  0  0  0  0  0  0  0  0  0  0
   -0.0372    0.4686   -3.9631 C   0  0  0  0  0  0  0  0  0  0  0  0
    0.6139    0.4312   -5.2049 C   0  0  0  0  0  0  0  0  0  0  0  0
    1.7437    1.2356   -5.4405 C   0  0  0  0  0  0  0  0  0  0  0  0
    2.2336    2.0886   -4.4387 C   0  0  0  0  0  0  0  0  0  0  0  0
   -1.9949    2.3751    0.9699 C   0  0  0  0  0  0  0  0  0  0  0  0
   -3.4336    0.6335   -0.0905 C   0  0  0  0  0  0  0  0  0  0  0  0
    0.5254    0.8938    2.7661 C   0  0  0  0  0  0  0  0  0  0  0  0
    0.1326    2.0392    3.7146 C   0  0  0  0  0  0  0  0  0  0  0  0
   -2.2800   -2.5107    0.0276 C   0  0  0  0  0  0  0  0  0  0  0  0
   -1.5006   -3.8388   -0.0642 C   0  0  0  0  0  0  0  0  0  0  0  0
    1.8237    0.2349    3.2743 C   0  0  0  0  0  0  0  0  0  0  0  0
   -3.7865   -2.8029   -0.0844 C   0  0  0  0  0  0  0  0  0  0  0  0
   -1.9033    2.7685   -1.6843 H   0  0  0  0  0  0  0  0  0  0  0  0
   -2.1043    1.0755   -2.2379 H   0  0  0  0  0  0  0  0  0  0  0  0
    1.0915    2.5850    0.0186 H   0  0  0  0  0  0  0  0  0  0  0  0
    0.0857    3.6305   -1.0372 H   0  0  0  0  0  0  0  0  0  0  0  0
    2.8671    2.5251   -1.5086 H   0  0  0  0  0  0  0  0  0  0  0  0
    2.1290    3.9999   -2.2084 H   0  0  0  0  0  0  0  0  0  0  0  0
    3.1157    2.7191   -4.6253 H   0  0  0  0  0  0  0  0  0  0  0  0
    2.2456    1.1975   -6.4186 H   0  0  0  0  0  0  0  0  0  0  0  0
    0.2425   -0.2384   -5.9936 H   0  0  0  0  0  0  0  0  0  0  0  0
   -0.8974   -0.1860   -3.7707 H   0  0  0  0  0  0  0  0  0  0  0  0
   -1.0044    2.8603    1.0228 H   0  0  0  0  0  0  0  0  0  0  0  0
   -2.2457    1.9752    1.9707 H   0  0  0  0  0  0  0  0  0  0  0  0
   -2.7484    3.1461    0.7147 H   0  0  0  0  0  0  0  0  0  0  0  0
   -4.1709    1.4238   -0.3352 H   0  0  0  0  0  0  0  0  0  0  0  0
   -3.7033    0.2091    0.8955 H   0  0  0  0  0  0  0  0  0  0  0  0
   -3.5129   -0.1577   -0.8568 H   0  0  0  0  0  0  0  0  0  0  0  0
   -0.5282   -0.5184    4.7649 H   0  0  0  0  0  0  0  0  0  0  0  0
   -2.8496   -3.3507    2.4948 H   0  0  0  0  0  0  0  0  0  0  0  0
   -2.0941   -2.4579    4.6977 H   0  0  0  0  0  0  0  0  0  0  0  0
    0.7436    1.3105    1.7639 H   0  0  0  0  0  0  0  0  0  0  0  0
    2.1264   -0.6063    2.6245 H   0  0  0  0  0  0  0  0  0  0  0  0
    1.6938   -0.1425    4.3097 H   0  0  0  0  0  0  0  0  0  0  0  0
    2.6526    0.9688    3.2685 H   0  0  0  0  0  0  0  0  0  0  0  0
    0.9447    2.7931    3.7499 H   0  0  0  0  0  0  0  0  0  0  0  0
   -0.0152    1.6699    4.7504 H   0  0  0  0  0  0  0  0  0  0  0  0
   -0.7972    2.5534    3.4083 H   0  0  0  0  0  0  0  0  0  0  0  0
   -1.9572   -1.8847   -0.8275 H   0  0  0  0  0  0  0  0  0  0  0  0
   -4.0081   -3.2607   -1.0696 H   0  0  0  0  0  0  0  0  0  0  0  0
   -4.4129   -1.8975    0.0219 H   0  0  0  0  0  0  0  0  0  0  0  0
   -4.1152   -3.5262    0.6901 H   0  0  0  0  0  0  0  0  0  0  0  0
   -1.6764   -4.3188   -1.0469 H   0  0  0  0  0  0  0  0  0  0  0  0
   -1.8253   -4.5397    0.7330 H   0  0  0  0  0  0  0  0  0  0  0  0
   -0.4128   -3.6699    0.0290 H   0  0  0  0  0  0  0  0  0  0  0  0
  2  4  1  0  0  0  0
  2  1  1  0  0  0  0
  2  3  1  0  0  0  0
  4  6  1  0  0  0  0
  4  5  1  0  0  0  0
  6  1  1  0  0  0  0
  6  8  1  0  0  0  0
  7  6  1  0  0  0  0
  9  4  1  0  0  0  0
 10  2  1  0  0  0  0
  1 11  1  0  0  0  0
  1 12  1  0  0  0  0
 13 14  2  0  0  0  0
 13 18  2  0  0  0  0
 13 57  1  0  0  0  0
 14 15  2  0  0  0  0
 14 36  1  0  0  0  0
 15 16  2  0  0  0  0
 15 19  1  0  0  0  0
 16 17  2  0  0  0  0
 16 34  1  0  0  0  0
 17 18  2  0  0  0  0
 17 56  1  0  0  0  0
 18 58  1  0  0  0  0
 19 20  1  0  0  0  0
 19 23  1  0  0  0  0
 20 21  1  0  0  0  0
 20 32  1  0  0  0  0
 20 33  1  0  0  0  0
 21 22  1  0  0  0  0
 21 40  1  0  0  0  0
 21 41  1  0  0  0  0
 22 23  1  0  0  0  0
 22 24  1  0  0  0  0
 22 27  1  0  0  0  0
 24 25  2  0  0  0  0
 24 28  2  0  0  0  0
 25 26  1  0  0  0  0
 25 31  2  0  0  0  0
 26 27  1  0  0  0  0
 26 44  1  0  0  0  0
 26 45  1  0  0  0  0
 27 42  1  0  0  0  0
 27 43  1  0  0  0  0
 28 29  2  0  0  0  0
 28 49  1  0  0  0  0
 29 30  2  0  0  0  0
 29 48  1  0  0  0  0
 30 31  2  0  0  0  0
 30 47  1  0  0  0  0
 31 46  1  0  0  0  0
 32 50  1  0  0  0  0
 32 51  1  0  0  0  0
 32 52  1  0  0  0  0
 33 53  1  0  0  0  0
 33 54  1  0  0  0  0
 33 55  1  0  0  0  0
 34 35  1  0  0  0  0
 34 38  1  0  0  0  0
 34 59  1  0  0  0  0
 35 63  1  0  0  0  0
 35 64  1  0  0  0  0
 35 65  1  0  0  0  0
 36 37  1  0  0  0  0
 36 39  1  0  0  0  0
 36 66  1  0  0  0  0
 37 70  1  0  0  0  0
 37 71  1  0  0  0  0
 37 72  1  0  0  0  0
 38 60  1  0  0  0  0
 38 61  1  0  0  0  0
 38 62  1  0  0  0  0
 39 67  1  0  0  0  0
 39 68  1  0  0  0  0
 39 69  1  0  0  0  0
  1 23  1  0  0  0  0
M  END
>  <DFT-ENERGY>
-2196.70714352

$$$$
