
  CDK     07282419413D

 78 82  0  0  0  0  0  0  0  0999 V2000
   -0.9238   -4.0533   -1.3863 C   0  0  0  0  0  0  0  0  0  0  0  0
    0.0645   -4.2805   -1.8230 H   0  0  0  0  0  0  0  0  0  0  0  0
   -1.6003   -4.9249   -1.5349 H   0  0  0  0  0  0  0  0  0  0  0  0
   -1.3710   -3.2044   -1.9362 H   0  0  0  0  0  0  0  0  0  0  0  0
   -0.8394   -3.7715    0.0926 C   0  0  0  0  0  0  0  0  0  0  0  0
   -1.7984   -3.5383    0.5915 H   0  0  0  0  0  0  0  0  0  0  0  0
    0.1449   -4.3592    0.9289 C   0  0  0  0  0  0  0  0  0  0  0  0
    1.0058   -4.8150    0.4079 H   0  0  0  0  0  0  0  0  0  0  0  0
   -0.2044   -4.8874    2.2995 C   0  0  0  0  0  0  0  0  0  0  0  0
    0.6895   -5.1078    2.9128 H   0  0  0  0  0  0  0  0  0  0  0  0
   -0.7667   -5.8377    2.1721 H   0  0  0  0  0  0  0  0  0  0  0  0
   -0.8556   -4.1716    2.8385 H   0  0  0  0  0  0  0  0  0  0  0  0
    1.5336   -2.6876    1.7432 C   0  0  0  0  0  0  0  0  0  0  0  0
    1.3207   -2.7262    2.8322 H   0  0  0  0  0  0  0  0  0  0  0  0
    2.5070   -3.1024    1.4025 H   0  0  0  0  0  0  0  0  0  0  0  0
    0.3420   -1.9388    0.5661 Ru  0  0  0  0  0  0  0  0  0  0  0  0
   -1.2666   -1.6169    2.3345 Cl  0  0  0  0  0  0  0  0  0  0  0  0
    1.8528   -2.4120   -1.2339 Cl  0  0  0  0  0  0  0  0  0  0  0  0
    3.0340    0.9631    4.3347 C   0  0  0  0  0  0  0  0  0  0  0  0
    1.9329    0.8904    3.4593 C   0  0  0  0  0  0  0  0  0  0  0  0
    2.1927    0.8005    2.0603 C   0  0  0  0  0  0  0  0  0  0  0  0
    3.5283    0.6671    1.5760 C   0  0  0  0  0  0  0  0  0  0  0  0
    4.5834    0.7472    2.5050 C   0  0  0  0  0  0  0  0  0  0  0  0
    4.3491    0.9231    3.8694 C   0  0  0  0  0  0  0  0  0  0  0  0
    1.1083    0.9552    1.1030 N   0  0  0  0  0  0  0  0  0  0  0  0
    0.6809    2.3611    0.6731 C   0  0  0  0  0  0  0  0  0  0  0  0
   -0.5760    2.0297   -0.1496 C   0  0  0  0  0  0  0  0  0  0  0  0
   -0.3394    0.6167   -0.7155 C   0  0  0  0  0  0  0  0  0  0  0  0
    0.5033   -0.0163    0.4029 C   0  0  0  0  0  0  0  0  0  0  0  0
   -1.6126   -0.1407   -1.0769 C   0  0  0  0  0  0  0  0  0  0  0  0
   -1.5777   -0.6118   -2.4040 C   0  0  0  0  0  0  0  0  0  0  0  0
   -0.2448   -0.3436   -3.0474 C   0  0  0  0  0  0  0  0  0  0  0  0
    0.4738    0.6119   -2.0685 C   0  0  0  0  0  0  0  0  0  0  0  0
   -2.7529   -0.3329   -0.2801 C   0  0  0  0  0  0  0  0  0  0  0  0
   -3.8609   -0.9992   -0.8255 C   0  0  0  0  0  0  0  0  0  0  0  0
   -3.8347   -1.4548   -2.1557 C   0  0  0  0  0  0  0  0  0  0  0  0
   -2.6934   -1.2642   -2.9510 C   0  0  0  0  0  0  0  0  0  0  0  0
    1.7879    3.0347   -0.1451 C   0  0  0  0  0  0  0  0  0  0  0  0
    0.3428    3.2464    1.8690 C   0  0  0  0  0  0  0  0  0  0  0  0
    3.9061    0.3587    0.1301 C   0  0  0  0  0  0  0  0  0  0  0  0
    4.8233    1.4234   -0.4985 C   0  0  0  0  0  0  0  0  0  0  0  0
    0.5490    0.8145    4.0978 C   0  0  0  0  0  0  0  0  0  0  0  0
    0.4395   -0.4813    4.9261 C   0  0  0  0  0  0  0  0  0  0  0  0
    4.6112   -1.0094    0.0600 C   0  0  0  0  0  0  0  0  0  0  0  0
    0.2347    2.0092    5.0176 C   0  0  0  0  0  0  0  0  0  0  0  0
   -0.7680    2.7743   -0.9451 H   0  0  0  0  0  0  0  0  0  0  0  0
   -1.4551    2.0087    0.5244 H   0  0  0  0  0  0  0  0  0  0  0  0
    1.5200    0.2900   -1.9124 H   0  0  0  0  0  0  0  0  0  0  0  0
    0.4846    1.6451   -2.4672 H   0  0  0  0  0  0  0  0  0  0  0  0
    0.3261   -1.2923   -3.1365 H   0  0  0  0  0  0  0  0  0  0  0  0
   -0.3429    0.0880   -4.0639 H   0  0  0  0  0  0  0  0  0  0  0  0
   -2.6710   -1.6251   -3.9903 H   0  0  0  0  0  0  0  0  0  0  0  0
   -4.7136   -1.9659   -2.5754 H   0  0  0  0  0  0  0  0  0  0  0  0
   -4.7547   -1.1622   -0.2065 H   0  0  0  0  0  0  0  0  0  0  0  0
   -2.7689    0.0063    0.7637 H   0  0  0  0  0  0  0  0  0  0  0  0
    2.0882    2.4374   -1.0230 H   0  0  0  0  0  0  0  0  0  0  0  0
    2.6808    3.2044    0.4864 H   0  0  0  0  0  0  0  0  0  0  0  0
    1.4319    4.0222   -0.4995 H   0  0  0  0  0  0  0  0  0  0  0  0
    0.0087    4.2336    1.4918 H   0  0  0  0  0  0  0  0  0  0  0  0
    1.2249    3.4113    2.5167 H   0  0  0  0  0  0  0  0  0  0  0  0
   -0.4745    2.8162    2.4740 H   0  0  0  0  0  0  0  0  0  0  0  0
    5.6163    0.6598    2.1392 H   0  0  0  0  0  0  0  0  0  0  0  0
    2.8447    1.0434    5.4145 H   0  0  0  0  0  0  0  0  0  0  0  0
    5.1908    0.9992    4.5731 H   0  0  0  0  0  0  0  0  0  0  0  0
    2.9784    0.2770   -0.4671 H   0  0  0  0  0  0  0  0  0  0  0  0
    3.9936   -1.8036    0.5143 H   0  0  0  0  0  0  0  0  0  0  0  0
    5.5923   -0.9768    0.5778 H   0  0  0  0  0  0  0  0  0  0  0  0
    4.7836   -1.2953   -0.9959 H   0  0  0  0  0  0  0  0  0  0  0  0
    5.0303    1.1657   -1.5571 H   0  0  0  0  0  0  0  0  0  0  0  0
    5.8008    1.4650    0.0250 H   0  0  0  0  0  0  0  0  0  0  0  0
    4.3890    2.4396   -0.4725 H   0  0  0  0  0  0  0  0  0  0  0  0
   -0.2073    0.7488    3.2915 H   0  0  0  0  0  0  0  0  0  0  0  0
   -0.8053    1.9306    5.3943 H   0  0  0  0  0  0  0  0  0  0  0  0
    0.3442    2.9877    4.5151 H   0  0  0  0  0  0  0  0  0  0  0  0
    0.9011    2.0162    5.9047 H   0  0  0  0  0  0  0  0  0  0  0  0
   -0.5923   -0.5995    5.3123 H   0  0  0  0  0  0  0  0  0  0  0  0
    1.1345   -0.4585    5.7913 H   0  0  0  0  0  0  0  0  0  0  0  0
    0.6601   -1.3712    4.3113 H   0  0  0  0  0  0  0  0  0  0  0  0
  1  2  1  0  0  0  0
  1  5  1  0  0  0  0
  1  3  1  0  0  0  0
  1  4  1  0  0  0  0
  5  6  1  0  0  0  0
  5 16  1  0  0  0  0
  5  7  1  0  0  0  0
  7  9  1  0  0  0  0
  7  8  1  0  0  0  0
  9 10  1  0  0  0  0
  9 11  1  0  0  0  0
  9 12  1  0  0  0  0
 13 14  1  0  0  0  0
 13 15  1  0  0  0  0
  7 13  1  0  0  0  0
 13 16  1  0  0  0  0
 16 17  1  0  0  0  0
 16 18  1  0  0  0  0
 19 20  2  0  0  0  0
 19 24  2  0  0  0  0
 19 63  1  0  0  0  0
 20 21  2  0  0  0  0
 20 42  1  0  0  0  0
 21 22  2  0  0  0  0
 21 25  1  0  0  0  0
 22 23  2  0  0  0  0
 22 40  1  0  0  0  0
 23 24  2  0  0  0  0
 23 62  1  0  0  0  0
 24 64  1  0  0  0  0
 25 26  1  0  0  0  0
 25 29  1  0  0  0  0
 26 27  1  0  0  0  0
 26 38  1  0  0  0  0
 26 39  1  0  0  0  0
 27 28  1  0  0  0  0
 27 46  1  0  0  0  0
 27 47  1  0  0  0  0
 28 29  1  0  0  0  0
 28 30  1  0  0  0  0
 28 33  1  0  0  0  0
 30 31  2  0  0  0  0
 30 34  2  0  0  0  0
 31 32  1  0  0  0  0
 31 37  2  0  0  0  0
 32 33  1  0  0  0  0
 32 50  1  0  0  0  0
 32 51  1  0  0  0  0
 33 48  1  0  0  0  0
 33 49  1  0  0  0  0
 34 35  2  0  0  0  0
 34 55  1  0  0  0  0
 35 36  2  0  0  0  0
 35 54  1  0  0  0  0
 36 37  2  0  0  0  0
 36 53  1  0  0  0  0
 37 52  1  0  0  0  0
 38 56  1  0  0  0  0
 38 57  1  0  0  0  0
 38 58  1  0  0  0  0
 39 59  1  0  0  0  0
 39 60  1  0  0  0  0
 39 61  1  0  0  0  0
 40 41  1  0  0  0  0
 40 44  1  0  0  0  0
 40 65  1  0  0  0  0
 41 69  1  0  0  0  0
 41 70  1  0  0  0  0
 41 71  1  0  0  0  0
 42 43  1  0  0  0  0
 42 45  1  0  0  0  0
 42 72  1  0  0  0  0
 43 76  1  0  0  0  0
 43 77  1  0  0  0  0
 43 78  1  0  0  0  0
 44 66  1  0  0  0  0
 44 67  1  0  0  0  0
 44 68  1  0  0  0  0
 45 73  1  0  0  0  0
 45 74  1  0  0  0  0
 45 75  1  0  0  0  0
 16 29  1  0  0  0  0
M  END
>  <DFT-ENERGY>
-2275.21395722

$$$$
