
  CDK     08132419053D

 74 78  0  0  0  0  0  0  0  0999 V2000
   -0.9298    0.9174   -2.7411 H   0  0  0  0  0  0  0  0  0  0  0  0
   -1.2084    2.0721   -3.0622 C   0  0  0  0  0  0  0  0  0  0  0  0
   -1.1354    1.7833   -4.1331 H   0  0  0  0  0  0  0  0  0  0  0  0
   -2.5023    2.2719   -2.3480 C   0  0  0  0  0  0  0  0  0  0  0  0
   -2.7485    3.2987   -2.0307 H   0  0  0  0  0  0  0  0  0  0  0  0
   -3.3545    1.6639   -2.6959 H   0  0  0  0  0  0  0  0  0  0  0  0
   -1.1781    1.3498   -1.0388 Ru  0  0  0  0  0  0  0  0  0  0  0  0
   -0.1065    2.7176   -2.3348 C   0  0  0  0  0  0  0  0  0  0  0  0
   -0.2444    3.7396   -1.9609 H   0  0  0  0  0  0  0  0  0  0  0  0
    0.9217    2.4345   -2.6105 H   0  0  0  0  0  0  0  0  0  0  0  0
   -1.2302    3.3743    0.2838 Cl  0  0  0  0  0  0  0  0  0  0  0  0
   -2.2354   -0.7625   -1.5735 Cl  0  0  0  0  0  0  0  0  0  0  0  0
   -1.6532    0.5462    0.7969 C   0  0  0  0  0  0  0  0  0  0  0  0
   -3.2491   -0.9376    2.1137 C   0  0  0  0  0  0  0  0  0  0  0  0
   -0.7265   -1.1859    2.3671 C   0  0  0  0  0  0  0  0  0  0  0  0
   -2.0484   -1.8700    1.9757 C   0  0  0  0  0  0  0  0  0  0  0  0
   -0.5932   -0.0403    1.3608 N   0  0  0  0  0  0  0  0  0  0  0  0
   -3.0215    0.4638    1.4591 C   0  0  0  0  0  0  0  0  0  0  0  0
   -3.5131   -0.8153    3.1833 H   0  0  0  0  0  0  0  0  0  0  0  0
   -1.9585   -2.2062    0.9220 H   0  0  0  0  0  0  0  0  0  0  0  0
   -4.1244   -1.4185    1.6348 H   0  0  0  0  0  0  0  0  0  0  0  0
   -2.1817   -2.7718    2.6074 H   0  0  0  0  0  0  0  0  0  0  0  0
   -3.0170    1.6173    2.5328 C   0  0  0  0  0  0  0  0  0  0  0  0
   -4.1652    0.8140    0.4723 C   0  0  0  0  0  0  0  0  0  0  0  0
    0.4403   -2.1563    2.1945 C   0  0  0  0  0  0  0  0  0  0  0  0
    0.3913   -2.9142    3.0000 H   0  0  0  0  0  0  0  0  0  0  0  0
    1.4154   -1.6377    2.2756 H   0  0  0  0  0  0  0  0  0  0  0  0
    0.3942   -2.6845    1.2283 H   0  0  0  0  0  0  0  0  0  0  0  0
   -0.7523   -0.7470    3.8425 C   0  0  0  0  0  0  0  0  0  0  0  0
   -1.5082    0.0246    4.0607 H   0  0  0  0  0  0  0  0  0  0  0  0
    0.2318   -0.3816    4.1809 H   0  0  0  0  0  0  0  0  0  0  0  0
   -1.0036   -1.6371    4.4537 H   0  0  0  0  0  0  0  0  0  0  0  0
    0.6763    0.4474    0.7696 C   0  0  0  0  0  0  0  0  0  0  0  0
    2.8275    1.7764   -0.4709 C   0  0  0  0  0  0  0  0  0  0  0  0
    1.3128    1.5452    1.4296 C   0  0  0  0  0  0  0  0  0  0  0  0
    1.1800   -0.0578   -0.4814 C   0  0  0  0  0  0  0  0  0  0  0  0
    2.2535    0.6611   -1.0700 C   0  0  0  0  0  0  0  0  0  0  0  0
    2.3764    2.1922    0.7873 C   0  0  0  0  0  0  0  0  0  0  0  0
    2.6587    0.2950   -2.0233 H   0  0  0  0  0  0  0  0  0  0  0  0
    2.8554    3.0468    1.2835 H   0  0  0  0  0  0  0  0  0  0  0  0
    3.6510    2.3092   -0.9683 H   0  0  0  0  0  0  0  0  0  0  0  0
    0.9297   -1.4530   -1.0630 C   0  0  0  0  0  0  0  0  0  0  0  0
   -0.0151   -1.8442   -0.6400 H   0  0  0  0  0  0  0  0  0  0  0  0
    0.9584    1.9832    2.8447 C   0  0  0  0  0  0  0  0  0  0  0  0
   -0.0369    1.5688    3.0864 H   0  0  0  0  0  0  0  0  0  0  0  0
    1.9986    1.3883    3.8173 C   0  0  0  0  0  0  0  0  0  0  0  0
    2.9921    1.8512    3.6445 H   0  0  0  0  0  0  0  0  0  0  0  0
    2.1248    0.2948    3.6860 H   0  0  0  0  0  0  0  0  0  0  0  0
    1.7122    1.5835    4.8714 H   0  0  0  0  0  0  0  0  0  0  0  0
    0.8780    3.5040    3.0411 C   0  0  0  0  0  0  0  0  0  0  0  0
    1.8686    3.9887    2.9197 H   0  0  0  0  0  0  0  0  0  0  0  0
    0.5341    3.7271    4.0717 H   0  0  0  0  0  0  0  0  0  0  0  0
    0.1730    3.9563    2.3203 H   0  0  0  0  0  0  0  0  0  0  0  0
    2.1132   -2.3723   -0.6753 C   0  0  0  0  0  0  0  0  0  0  0  0
    3.0233   -2.0789   -1.2374 H   0  0  0  0  0  0  0  0  0  0  0  0
    1.8842   -3.4266   -0.9337 H   0  0  0  0  0  0  0  0  0  0  0  0
    2.3661   -2.3248    0.3989 H   0  0  0  0  0  0  0  0  0  0  0  0
    0.7998   -1.4939   -2.5940 C   0  0  0  0  0  0  0  0  0  0  0  0
    1.7439   -1.1981   -3.0955 H   0  0  0  0  0  0  0  0  0  0  0  0
   -0.0190   -0.8487   -2.9563 H   0  0  0  0  0  0  0  0  0  0  0  0
    0.5727   -2.5293   -2.9171 H   0  0  0  0  0  0  0  0  0  0  0  0
   -3.8858    1.7568   -0.0420 H   0  0  0  0  0  0  0  0  0  0  0  0
   -4.2178    0.0359   -0.3103 H   0  0  0  0  0  0  0  0  0  0  0  0
   -5.5237    0.9813    1.1621 C   0  0  0  0  0  0  0  0  0  0  0  0
   -5.8421    0.0189    1.6238 H   0  0  0  0  0  0  0  0  0  0  0  0
   -6.2895    1.2169    0.3944 H   0  0  0  0  0  0  0  0  0  0  0  0
   -2.2113    1.4581    3.2736 H   0  0  0  0  0  0  0  0  0  0  0  0
   -2.7587    2.5545    2.0030 H   0  0  0  0  0  0  0  0  0  0  0  0
   -4.3671    1.7781    3.2400 C   0  0  0  0  0  0  0  0  0  0  0  0
   -4.2786    2.5997    3.9815 H   0  0  0  0  0  0  0  0  0  0  0  0
   -4.6187    0.8628    3.8222 H   0  0  0  0  0  0  0  0  0  0  0  0
   -5.4863    2.0700    2.2374 C   0  0  0  0  0  0  0  0  0  0  0  0
   -5.2921    3.0537    1.7549 H   0  0  0  0  0  0  0  0  0  0  0  0
   -6.4651    2.1519    2.7546 H   0  0  0  0  0  0  0  0  0  0  0  0
  1  2  1  0  0  0  0
  1  7  1  0  0  0  0
  2  3  1  0  0  0  0
  2  4  1  0  0  0  0
  4  5  1  0  0  0  0
  4  6  1  0  0  0  0
  7  8  1  0  0  0  0
  4  7  1  0  0  0  0
  2  8  1  0  0  0  0
  8  9  1  0  0  0  0
  8 10  1  0  0  0  0
  7 11  1  0  0  0  0
  7 12  1  0  0  0  0
 13 17  1  0  0  0  0
 13 18  1  0  0  0  0
 14 19  1  0  0  0  0
 14 21  1  0  0  0  0
 14 16  1  0  0  0  0
 14 18  1  0  0  0  0
 15 17  1  0  0  0  0
 15 16  1  0  0  0  0
 16 20  1  0  0  0  0
 16 22  1  0  0  0  0
 18 23  1  0  0  0  0
 18 24  1  0  0  0  0
 25 26  1  0  0  0  0
 25 27  1  0  0  0  0
 25 28  1  0  0  0  0
 15 25  1  0  0  0  0
 29 30  1  0  0  0  0
 29 31  1  0  0  0  0
 29 32  1  0  0  0  0
 15 29  1  0  0  0  0
 33 36  2  0  0  0  0
 36 37  1  0  0  0  0
 34 37  2  0  0  0  0
 34 38  1  0  0  0  0
 35 38  2  0  0  0  0
 33 35  1  0  0  0  0
 37 39  1  0  0  0  0
 38 40  1  0  0  0  0
 34 41  1  0  0  0  0
 17 33  1  0  0  0  0
 42 43  1  0  0  0  0
 36 42  1  0  0  0  0
 44 45  1  0  0  0  0
 35 44  1  0  0  0  0
 46 47  1  0  0  0  0
 46 48  1  0  0  0  0
 46 49  1  0  0  0  0
 44 46  1  0  0  0  0
 50 51  1  0  0  0  0
 50 52  1  0  0  0  0
 50 53  1  0  0  0  0
 44 50  1  0  0  0  0
 54 55  1  0  0  0  0
 54 56  1  0  0  0  0
 54 57  1  0  0  0  0
 42 54  1  0  0  0  0
 58 59  1  0  0  0  0
 58 60  1  0  0  0  0
 58 61  1  0  0  0  0
 42 58  1  0  0  0  0
 24 62  1  0  0  0  0
 24 63  1  0  0  0  0
 64 65  1  0  0  0  0
 64 66  1  0  0  0  0
 24 64  1  0  0  0  0
 23 67  1  0  0  0  0
 23 68  1  0  0  0  0
 69 70  1  0  0  0  0
 69 71  1  0  0  0  0
 23 69  1  0  0  0  0
 72 73  1  0  0  0  0
 72 74  1  0  0  0  0
 69 72  1  0  0  0  0
 64 72  1  0  0  0  0
  7 13  1  0  0  0  0
M  END
>  <DFT-ENERGY>
-2122.89908

$$$$
