
  CDK     02052423363D

 65 69  0  0  0  0  0  0  0  0999 V2000
    1.3632   -0.9769   -2.5443 H   0  0  0  0  0  0  0  0  0  0  0  0
    1.8956   -2.0651   -2.3292 C   0  0  0  0  0  0  0  0  0  0  0  0
    1.7054   -2.3891   -3.3735 H   0  0  0  0  0  0  0  0  0  0  0  0
    1.0353   -2.4403   -1.1828 C   0  0  0  0  0  0  0  0  0  0  0  0
    1.4434   -3.1254   -0.4268 H   0  0  0  0  0  0  0  0  0  0  0  0
   -0.0493   -2.5196   -1.3739 H   0  0  0  0  0  0  0  0  0  0  0  0
    1.7639   -0.4726   -0.8916 Ru  0  0  0  0  0  0  0  0  0  0  0  0
    3.2276   -1.6029   -1.8469 C   0  0  0  0  0  0  0  0  0  0  0  0
    3.7748   -2.2354   -1.1305 H   0  0  0  0  0  0  0  0  0  0  0  0
    3.8486   -1.0581   -2.5781 H   0  0  0  0  0  0  0  0  0  0  0  0
    2.5927   -1.4914    1.1553 Cl  0  0  0  0  0  0  0  0  0  0  0  0
    2.0420    1.2688   -2.5118 Cl  0  0  0  0  0  0  0  0  0  0  0  0
    1.7509    0.9262    0.5810 C   0  0  0  0  0  0  0  0  0  0  0  0
    2.7717    1.8822    1.2053 C   0  0  0  0  0  0  0  0  0  0  0  0
    2.0691    2.2471    2.5387 C   0  0  0  0  0  0  0  0  0  0  0  0
    2.3697    1.5163    3.3132 H   0  0  0  0  0  0  0  0  0  0  0  0
    2.3356    3.2605    2.8936 H   0  0  0  0  0  0  0  0  0  0  0  0
    0.5468    2.1004    2.3076 C   0  0  0  0  0  0  0  0  0  0  0  0
    0.5586    1.1357    1.1352 N   0  0  0  0  0  0  0  0  0  0  0  0
    2.8969    3.1287    0.2814 C   0  0  0  0  0  0  0  0  0  0  0  0
    3.3100    2.8473   -0.7023 H   0  0  0  0  0  0  0  0  0  0  0  0
    3.5756    3.8552    0.7701 H   0  0  0  0  0  0  0  0  0  0  0  0
    1.9227    3.6191    0.1000 H   0  0  0  0  0  0  0  0  0  0  0  0
    4.1778    1.2997    1.3513 C   0  0  0  0  0  0  0  0  0  0  0  0
    4.8686    1.3013    2.5741 C   0  0  0  0  0  0  0  0  0  0  0  0
    4.3935    1.6944    3.4833 H   0  0  0  0  0  0  0  0  0  0  0  0
    6.1786    0.8007    2.6609 C   0  0  0  0  0  0  0  0  0  0  0  0
    6.6980    0.8078    3.6304 H   0  0  0  0  0  0  0  0  0  0  0  0
    6.8181    0.2955    1.5223 C   0  0  0  0  0  0  0  0  0  0  0  0
    7.8413   -0.1016    1.5905 H   0  0  0  0  0  0  0  0  0  0  0  0
    6.1415    0.3082    0.2917 C   0  0  0  0  0  0  0  0  0  0  0  0
    6.6318   -0.0815   -0.6126 H   0  0  0  0  0  0  0  0  0  0  0  0
    4.8400    0.8133    0.2058 C   0  0  0  0  0  0  0  0  0  0  0  0
    4.3139    0.8095   -0.7594 H   0  0  0  0  0  0  0  0  0  0  0  0
   -0.1570    1.4939    3.5240 C   0  0  0  0  0  0  0  0  0  0  0  0
   -0.1404    2.2338    4.3486 H   0  0  0  0  0  0  0  0  0  0  0  0
    0.3442    0.5760    3.8783 H   0  0  0  0  0  0  0  0  0  0  0  0
   -1.2170    1.2626    3.3008 H   0  0  0  0  0  0  0  0  0  0  0  0
   -0.1719    3.4091    1.9501 C   0  0  0  0  0  0  0  0  0  0  0  0
   -0.1585    4.0779    2.8330 H   0  0  0  0  0  0  0  0  0  0  0  0
   -1.2310    3.2127    1.6935 H   0  0  0  0  0  0  0  0  0  0  0  0
    0.2976    3.9476    1.1093 H   0  0  0  0  0  0  0  0  0  0  0  0
   -0.6060    0.4918    0.5393 C   0  0  0  0  0  0  0  0  0  0  0  0
   -1.0799   -0.7503    1.0498 C   0  0  0  0  0  0  0  0  0  0  0  0
   -2.1594   -1.3641    0.3870 C   0  0  0  0  0  0  0  0  0  0  0  0
   -2.5207   -2.3338    0.7593 H   0  0  0  0  0  0  0  0  0  0  0  0
   -2.7540   -0.7871   -0.7388 C   0  0  0  0  0  0  0  0  0  0  0  0
   -3.5859   -1.2968   -1.2467 H   0  0  0  0  0  0  0  0  0  0  0  0
   -2.2811    0.4354   -1.2197 C   0  0  0  0  0  0  0  0  0  0  0  0
   -2.7404    0.8901   -2.1093 H   0  0  0  0  0  0  0  0  0  0  0  0
   -1.2082    1.1044   -0.5989 C   0  0  0  0  0  0  0  0  0  0  0  0
   -0.4734   -1.4853    2.2243 C   0  0  0  0  0  0  0  0  0  0  0  0
    0.4214   -0.9559    2.5891 H   0  0  0  0  0  0  0  0  0  0  0  0
   -0.0750   -2.4481    1.8411 H   0  0  0  0  0  0  0  0  0  0  0  0
   -1.4611   -1.7629    3.3653 C   0  0  0  0  0  0  0  0  0  0  0  0
   -2.3240   -2.3717    3.0277 H   0  0  0  0  0  0  0  0  0  0  0  0
   -1.8700   -0.8271    3.7959 H   0  0  0  0  0  0  0  0  0  0  0  0
   -0.9598   -2.3221    4.1805 H   0  0  0  0  0  0  0  0  0  0  0  0
   -0.7733    2.4264   -1.1900 C   0  0  0  0  0  0  0  0  0  0  0  0
   -0.4310    2.2344   -2.2275 H   0  0  0  0  0  0  0  0  0  0  0  0
    0.1237    2.8035   -0.6729 H   0  0  0  0  0  0  0  0  0  0  0  0
   -1.8768    3.4934   -1.1970 C   0  0  0  0  0  0  0  0  0  0  0  0
   -2.7588    3.1695   -1.7850 H   0  0  0  0  0  0  0  0  0  0  0  0
   -1.5020    4.4325   -1.6512 H   0  0  0  0  0  0  0  0  0  0  0  0
   -2.2340    3.7286   -0.1741 H   0  0  0  0  0  0  0  0  0  0  0  0
  1  2  1  0  0  0  0
  1  7  1  0  0  0  0
  2  3  1  0  0  0  0
  2  4  1  0  0  0  0
  4  5  1  0  0  0  0
  4  6  1  0  0  0  0
  7  8  1  0  0  0  0
  4  7  1  0  0  0  0
  2  8  1  0  0  0  0
  8  9  1  0  0  0  0
  8 10  1  0  0  0  0
  7 11  1  0  0  0  0
  7 12  1  0  0  0  0
 13 19  1  0  0  0  0
 14 15  1  0  0  0  0
 14 20  1  0  0  0  0
 14 24  1  0  0  0  0
 15 16  1  0  0  0  0
 15 17  1  0  0  0  0
 15 18  1  0  0  0  0
 18 19  1  0  0  0  0
 18 35  1  0  0  0  0
 18 39  1  0  0  0  0
 19 43  1  0  0  0  0
 20 21  1  0  0  0  0
 20 22  1  0  0  0  0
 20 23  1  0  0  0  0
 24 25  1  0  0  0  0
 24 33  2  0  0  0  0
 25 26  1  0  0  0  0
 25 27  2  0  0  0  0
 27 28  1  0  0  0  0
 27 29  1  0  0  0  0
 29 30  1  0  0  0  0
 29 31  2  0  0  0  0
 31 32  1  0  0  0  0
 31 33  1  0  0  0  0
 33 34  1  0  0  0  0
 35 36  1  0  0  0  0
 35 37  1  0  0  0  0
 35 38  1  0  0  0  0
 39 40  1  0  0  0  0
 39 41  1  0  0  0  0
 39 42  1  0  0  0  0
 43 44  1  0  0  0  0
 43 51  2  0  0  0  0
 44 45  2  0  0  0  0
 44 52  1  0  0  0  0
 45 46  1  0  0  0  0
 45 47  1  0  0  0  0
 47 48  1  0  0  0  0
 47 49  2  0  0  0  0
 49 50  1  0  0  0  0
 49 51  1  0  0  0  0
 51 59  1  0  0  0  0
 52 53  1  0  0  0  0
 52 54  1  0  0  0  0
 52 55  1  0  0  0  0
 55 56  1  0  0  0  0
 55 57  1  0  0  0  0
 55 58  1  0  0  0  0
 59 60  1  0  0  0  0
 59 61  1  0  0  0  0
 59 62  1  0  0  0  0
 62 63  1  0  0  0  0
 62 64  1  0  0  0  0
 62 65  1  0  0  0  0
 13 14  1  0  0  0  0
  7 13  1  0  0  0  0
M  END
>  <DFT-ENERGY>
-2080.05839899

$$$$
