
  CDK     02062408033D

 46 50  0  0  0  0  0  0  0  0999 V2000
    2.0099    0.8782   -3.6632 H   0  0  0  0  0  0  0  0  0  0  0  0
    2.5134   -0.2176   -3.4184 C   0  0  0  0  0  0  0  0  0  0  0  0
    3.2775   -0.2167   -4.2286 H   0  0  0  0  0  0  0  0  0  0  0  0
    1.3234   -1.0915   -3.3991 C   0  0  0  0  0  0  0  0  0  0  0  0
    1.3968   -2.0022   -2.7826 H   0  0  0  0  0  0  0  0  0  0  0  0
    0.7078   -1.1892   -4.3061 H   0  0  0  0  0  0  0  0  0  0  0  0
    0.8720    0.7341   -2.3101 Ru  0  0  0  0  0  0  0  0  0  0  0  0
    2.8113   -0.1415   -1.9671 C   0  0  0  0  0  0  0  0  0  0  0  0
    2.7895   -1.0916   -1.4092 H   0  0  0  0  0  0  0  0  0  0  0  0
    3.5484    0.5871   -1.5983 H   0  0  0  0  0  0  0  0  0  0  0  0
    1.8702    2.6386   -1.4397 Cl  0  0  0  0  0  0  0  0  0  0  0  0
   -1.1505    0.4863   -3.4077 Cl  0  0  0  0  0  0  0  0  0  0  0  0
   -0.1612    0.3504   -0.3184 P   0  0  0  0  0  0  0  0  0  0  0  0
   -3.6594   -1.6630    0.6502 C   0  0  0  0  0  0  0  0  0  0  0  0
   -0.8777    1.8385    0.5014 C   0  0  0  0  0  0  0  0  0  0  0  0
   -1.5152   -1.9782   -1.1307 C   0  0  0  0  0  0  0  0  0  0  0  0
   -2.6421   -0.6976    0.6050 C   0  0  0  0  0  0  0  0  0  0  0  0
    1.0059   -0.3416    0.9374 C   0  0  0  0  0  0  0  0  0  0  0  0
   -1.5632   -0.8532   -0.2851 C   0  0  0  0  0  0  0  0  0  0  0  0
   -0.7421    2.0892    1.8788 C   0  0  0  0  0  0  0  0  0  0  0  0
   -2.5289   -2.9440   -1.0762 C   0  0  0  0  0  0  0  0  0  0  0  0
    2.1563    0.4037    1.2720 C   0  0  0  0  0  0  0  0  0  0  0  0
   -1.6151    2.7271   -0.3061 C   0  0  0  0  0  0  0  0  0  0  0  0
    1.7158   -2.0983    2.4671 C   0  0  0  0  0  0  0  0  0  0  0  0
    3.0690   -0.0989    2.2078 C   0  0  0  0  0  0  0  0  0  0  0  0
   -1.3423    3.2250    2.4447 C   0  0  0  0  0  0  0  0  0  0  0  0
   -2.0799    4.1070    1.6412 C   0  0  0  0  0  0  0  0  0  0  0  0
   -2.2170    3.8550    0.2662 C   0  0  0  0  0  0  0  0  0  0  0  0
    0.7894   -1.5954    1.5389 C   0  0  0  0  0  0  0  0  0  0  0  0
    2.8535   -1.3523    2.8055 C   0  0  0  0  0  0  0  0  0  0  0  0
   -3.6037   -2.7877   -0.1864 C   0  0  0  0  0  0  0  0  0  0  0  0
   -4.5026   -1.5318    1.3440 H   0  0  0  0  0  0  0  0  0  0  0  0
   -0.6827   -2.0836   -1.8385 H   0  0  0  0  0  0  0  0  0  0  0  0
   -2.6898    0.1831    1.2606 H   0  0  0  0  0  0  0  0  0  0  0  0
   -0.1633    1.3988    2.5085 H   0  0  0  0  0  0  0  0  0  0  0  0
   -2.4850   -3.8183   -1.7418 H   0  0  0  0  0  0  0  0  0  0  0  0
    2.3300    1.3763    0.7872 H   0  0  0  0  0  0  0  0  0  0  0  0
   -1.7136    2.5255   -1.3834 H   0  0  0  0  0  0  0  0  0  0  0  0
    1.5406   -3.0802    2.9305 H   0  0  0  0  0  0  0  0  0  0  0  0
    3.9601    0.4911    2.4677 H   0  0  0  0  0  0  0  0  0  0  0  0
   -1.2301    3.4209    3.5212 H   0  0  0  0  0  0  0  0  0  0  0  0
   -2.5467    4.9976    2.0867 H   0  0  0  0  0  0  0  0  0  0  0  0
   -2.7907    4.5466   -0.3676 H   0  0  0  0  0  0  0  0  0  0  0  0
   -0.1056   -2.1801    1.2854 H   0  0  0  0  0  0  0  0  0  0  0  0
    3.5761   -1.7477    3.5342 H   0  0  0  0  0  0  0  0  0  0  0  0
   -4.4036   -3.5416   -0.1505 H   0  0  0  0  0  0  0  0  0  0  0  0
  1  2  1  0  0  0  0
  1  7  1  0  0  0  0
  2  3  1  0  0  0  0
  2  4  1  0  0  0  0
  4  5  1  0  0  0  0
  6  4  1  0  0  0  0
  7  8  1  0  0  0  0
  7  4  1  0  0  0  0
  8  2  1  0  0  0  0
  8  9  1  0  0  0  0
 10  8  1  0  0  0  0
  7 11  1  0  0  0  0
  7 12  1  0  0  0  0
 14 17  1  0  0  0  0
 13 15  1  0  0  0  0
 16 19  1  0  0  0  0
 17 19  2  0  0  0  0
 13 18  1  0  0  0  0
 13 19  1  0  0  0  0
 15 20  1  0  0  0  0
 16 21  2  0  0  0  0
 18 22  2  0  0  0  0
 15 23  2  0  0  0  0
 24 29  2  0  0  0  0
 22 25  1  0  0  0  0
 20 26  2  0  0  0  0
 26 27  1  0  0  0  0
 23 28  1  0  0  0  0
 18 29  1  0  0  0  0
 24 30  1  0  0  0  0
 14 31  2  0  0  0  0
 14 32  1  0  0  0  0
 16 33  1  0  0  0  0
 17 34  1  0  0  0  0
 20 35  1  0  0  0  0
 21 36  1  0  0  0  0
 22 37  1  0  0  0  0
 23 38  1  0  0  0  0
 24 39  1  0  0  0  0
 25 40  1  0  0  0  0
 26 41  1  0  0  0  0
 27 42  1  0  0  0  0
 28 43  1  0  0  0  0
 29 44  1  0  0  0  0
 30 45  1  0  0  0  0
 31 46  1  0  0  0  0
 21 31  1  0  0  0  0
 25 30  2  0  0  0  0
 27 28  2  0  0  0  0
  7 13  1  0  0  0  0
M  END
>  <DFT-ENERGY>
-2167.89988569

$$$$
