
  CDK     07312421073D

 50 54  0  0  0  0  0  0  0  0999 V2000
    0.7935   -2.0424   -0.4659 Ru  0  0  0  0  0  0  0  0  0  0  0  0
    0.8697   -3.7031   -1.5070 C   0  0  0  0  0  0  0  0  0  0  0  0
    1.2250   -3.5869   -2.5463 H   0  0  0  0  0  0  0  0  0  0  0  0
    2.0353   -3.9113   -0.4637 C   0  0  0  0  0  0  0  0  0  0  0  0
    2.9600   -4.0309   -1.0573 H   0  0  0  0  0  0  0  0  0  0  0  0
    2.3203   -2.7249    0.5459 C   0  0  0  0  0  0  0  0  0  0  0  0
    2.1012   -2.9876    1.5966 H   0  0  0  0  0  0  0  0  0  0  0  0
    3.2866   -2.2240    0.3585 H   0  0  0  0  0  0  0  0  0  0  0  0
    1.7628   -4.7892    0.1493 H   0  0  0  0  0  0  0  0  0  0  0  0
    0.0283   -4.4027   -1.3535 H   0  0  0  0  0  0  0  0  0  0  0  0
    2.3020   -1.0198   -2.0163 Cl  0  0  0  0  0  0  0  0  0  0  0  0
   -0.7142   -3.0534    1.0901 Cl  0  0  0  0  0  0  0  0  0  0  0  0
   -0.2512   -0.3540   -0.4432 C   0  0  0  0  0  0  0  0  0  0  0  0
   -1.2385    0.1351   -1.2390 N   0  0  0  0  0  0  0  0  0  0  0  0
   -1.6338    1.4069   -0.8949 N   0  0  0  0  0  0  0  0  0  0  0  0
   -0.8869    1.7205    0.1527 C   0  0  0  0  0  0  0  0  0  0  0  0
   -0.0323    0.6554    0.4574 N   0  0  0  0  0  0  0  0  0  0  0  0
   -1.8283   -0.5397   -2.3457 C   0  0  0  0  0  0  0  0  0  0  0  0
   -2.9086   -1.8876   -4.5330 C   0  0  0  0  0  0  0  0  0  0  0  0
   -1.9916   -1.9319   -2.2789 C   0  0  0  0  0  0  0  0  0  0  0  0
   -2.2214    0.1946   -3.4743 C   0  0  0  0  0  0  0  0  0  0  0  0
   -2.7670   -0.4904   -4.5671 C   0  0  0  0  0  0  0  0  0  0  0  0
   -2.5226   -2.6027   -3.3891 C   0  0  0  0  0  0  0  0  0  0  0  0
   -3.0733    0.0735   -5.4595 H   0  0  0  0  0  0  0  0  0  0  0  0
   -2.6523   -3.6934   -3.3463 H   0  0  0  0  0  0  0  0  0  0  0  0
   -2.0885    1.2839   -3.4812 H   0  0  0  0  0  0  0  0  0  0  0  0
   -1.7437   -2.4700   -1.3498 H   0  0  0  0  0  0  0  0  0  0  0  0
   -3.3294   -2.4185   -5.3986 H   0  0  0  0  0  0  0  0  0  0  0  0
    0.9290    0.5080    1.5188 C   0  0  0  0  0  0  0  0  0  0  0  0
    2.7998    0.1519    3.5458 C   0  0  0  0  0  0  0  0  0  0  0  0
    2.2947    0.5895    1.2063 C   0  0  0  0  0  0  0  0  0  0  0  0
    0.4813    0.2312    2.8174 C   0  0  0  0  0  0  0  0  0  0  0  0
    1.4286    0.0592    3.8352 C   0  0  0  0  0  0  0  0  0  0  0  0
    3.2309    0.4102    2.2350 C   0  0  0  0  0  0  0  0  0  0  0  0
    2.6032    0.7533    0.1639 H   0  0  0  0  0  0  0  0  0  0  0  0
   -0.5945    0.1355    3.0125 H   0  0  0  0  0  0  0  0  0  0  0  0
    1.0925   -0.1625    4.8577 H   0  0  0  0  0  0  0  0  0  0  0  0
    4.3042    0.4655    2.0049 H   0  0  0  0  0  0  0  0  0  0  0  0
    3.5385    0.0108    4.3479 H   0  0  0  0  0  0  0  0  0  0  0  0
   -0.9972    2.9939    0.8701 C   0  0  0  0  0  0  0  0  0  0  0  0
   -1.3094    5.4745    2.1709 C   0  0  0  0  0  0  0  0  0  0  0  0
    0.0499    3.5218    1.6565 C   0  0  0  0  0  0  0  0  0  0  0  0
   -2.1989    3.7271    0.7356 C   0  0  0  0  0  0  0  0  0  0  0  0
   -2.3500    4.9575    1.3813 C   0  0  0  0  0  0  0  0  0  0  0  0
   -0.1127    4.7548    2.3018 C   0  0  0  0  0  0  0  0  0  0  0  0
    0.9988    2.9808    1.7546 H   0  0  0  0  0  0  0  0  0  0  0  0
   -3.0060    3.3090    0.1195 H   0  0  0  0  0  0  0  0  0  0  0  0
   -3.2905    5.5162    1.2725 H   0  0  0  0  0  0  0  0  0  0  0  0
    0.7101    5.1576    2.9092 H   0  0  0  0  0  0  0  0  0  0  0  0
   -1.4316    6.4399    2.6826 H   0  0  0  0  0  0  0  0  0  0  0  0
  2  4  1  0  0  0  0
  2  1  1  0  0  0  0
  2  3  1  0  0  0  0
  4  6  1  0  0  0  0
  4  5  1  0  0  0  0
  6  1  1  0  0  0  0
  6  8  1  0  0  0  0
  7  6  1  0  0  0  0
  9  4  1  0  0  0  0
 10  2  1  0  0  0  0
  1 11  1  0  0  0  0
  1 12  1  0  0  0  0
 13 14  1  0  0  0  0
 13 17  1  0  0  0  0
 14 15  1  0  0  0  0
 16 17  1  0  0  0  0
 18 21  2  0  0  0  0
 21 22  1  0  0  0  0
 19 22  2  0  0  0  0
 19 23  1  0  0  0  0
 20 23  2  0  0  0  0
 18 20  1  0  0  0  0
 22 24  1  0  0  0  0
 23 25  1  0  0  0  0
 14 18  1  0  0  0  0
 15 16  2  0  0  0  0
 21 26  1  0  0  0  0
 20 27  1  0  0  0  0
 19 28  1  0  0  0  0
 29 32  2  0  0  0  0
 32 33  1  0  0  0  0
 30 33  2  0  0  0  0
 30 34  1  0  0  0  0
 31 34  2  0  0  0  0
 29 31  1  0  0  0  0
 33 37  1  0  0  0  0
 34 38  1  0  0  0  0
 30 39  1  0  0  0  0
 31 35  1  0  0  0  0
 32 36  1  0  0  0  0
 17 29  1  0  0  0  0
 40 43  2  0  0  0  0
 43 44  1  0  0  0  0
 41 44  2  0  0  0  0
 41 45  1  0  0  0  0
 42 45  2  0  0  0  0
 40 42  1  0  0  0  0
 44 48  1  0  0  0  0
 45 49  1  0  0  0  0
 41 50  1  0  0  0  0
 42 46  1  0  0  0  0
 43 47  1  0  0  0  0
 16 40  1  0  0  0  0
  1 13  1  0  0  0  0
M  END
>  <DFT-ENERGY>
-2066.94173103

$$$$
