triphenylTriazole_A1
  CDK     07312414113D

 64 69  0  0  0  0  0  0  0  0999 V2000
   -1.0912   -0.1291    0.6820 Ru  0  0  0  0  0  0  0  0  0  0  0  0
   -2.8690    1.2601    0.6820 O   0  0  0  0  0  0  0  0  0  0  0  0
   -2.3014   -1.1332    1.6153 C   0  0  0  0  0  0  0  0  0  0  0  0
   -2.0686   -2.1559    1.9082 H   0  0  0  0  0  0  0  0  0  0  0  0
   -3.1045    2.4859   -0.0932 C   0  0  0  0  0  0  0  0  0  0  0  0
   -3.5202    3.2420    0.6067 H   0  0  0  0  0  0  0  0  0  0  0  0
   -1.6847    2.8118   -0.5301 C   0  0  0  0  0  0  0  0  0  0  0  0
   -1.6245    3.7799   -1.0346 H   0  0  0  0  0  0  0  0  0  0  0  0
   -1.2962    2.0404   -1.2276 H   0  0  0  0  0  0  0  0  0  0  0  0
   -1.0042    2.8334    0.3445 H   0  0  0  0  0  0  0  0  0  0  0  0
   -4.0376    2.1488   -1.2415 C   0  0  0  0  0  0  0  0  0  0  0  0
   -4.0373    2.9271   -2.0114 H   0  0  0  0  0  0  0  0  0  0  0  0
   -5.0712    1.9906   -0.9159 H   0  0  0  0  0  0  0  0  0  0  0  0
   -3.7126    1.2080   -1.7298 H   0  0  0  0  0  0  0  0  0  0  0  0
   -3.8612    0.7550    1.4803 C   0  0  0  0  0  0  0  0  0  0  0  0
   -5.0304    1.4080    1.8290 C   0  0  0  0  0  0  0  0  0  0  0  0
   -5.2502    2.4139    1.4783 H   0  0  0  0  0  0  0  0  0  0  0  0
   -5.9316    0.7505    2.6601 C   0  0  0  0  0  0  0  0  0  0  0  0
   -6.8546    1.2593    2.9474 H   0  0  0  0  0  0  0  0  0  0  0  0
   -5.6816   -0.5348    3.1318 C   0  0  0  0  0  0  0  0  0  0  0  0
   -6.4070   -1.0296    3.7762 H   0  0  0  0  0  0  0  0  0  0  0  0
   -4.5119   -1.1764    2.7715 C   0  0  0  0  0  0  0  0  0  0  0  0
   -4.3186   -2.1877    3.1261 H   0  0  0  0  0  0  0  0  0  0  0  0
   -3.5763   -0.5370    1.9560 C   0  0  0  0  0  0  0  0  0  0  0  0
   -1.6897   -0.6883   -1.5057 Cl  0  0  0  0  0  0  0  0  0  0  0  0
   -0.2682    1.2298    2.3876 Cl  0  0  0  0  0  0  0  0  0  0  0  0
    0.4144   -1.3429    0.6694 C   0  0  0  0  0  0  0  0  0  0  0  0
    0.8558   -2.4583    1.4161 N   0  0  0  0  0  0  0  0  0  0  0  0
    1.9999   -3.0511    0.8822 N   0  0  0  0  0  0  0  0  0  0  0  0
    2.3658   -2.3195   -0.1753 C   0  0  0  0  0  0  0  0  0  0  0  0
    1.4259   -1.2399   -0.3401 N   0  0  0  0  0  0  0  0  0  0  0  0
    0.3224   -3.0419    2.6293 C   0  0  0  0  0  0  0  0  0  0  0  0
   -0.6574   -4.1448    4.9913 C   0  0  0  0  0  0  0  0  0  0  0  0
    0.3161   -4.4382    2.7878 C   0  0  0  0  0  0  0  0  0  0  0  0
   -0.1484   -2.1911    3.6440 C   0  0  0  0  0  0  0  0  0  0  0  0
   -0.6415   -2.7558    4.8219 C   0  0  0  0  0  0  0  0  0  0  0  0
   -0.1780   -4.9797    3.9768 C   0  0  0  0  0  0  0  0  0  0  0  0
   -1.0089   -2.1032    5.6150 H   0  0  0  0  0  0  0  0  0  0  0  0
   -0.1856   -6.0611    4.1118 H   0  0  0  0  0  0  0  0  0  0  0  0
   -0.1297   -1.1001    3.5148 H   0  0  0  0  0  0  0  0  0  0  0  0
    0.7050   -5.0860    2.0010 H   0  0  0  0  0  0  0  0  0  0  0  0
   -1.0383   -4.5752    5.9159 H   0  0  0  0  0  0  0  0  0  0  0  0
    1.4923   -0.2137   -1.3537 C   0  0  0  0  0  0  0  0  0  0  0  0
    1.6976    1.7947   -3.2720 C   0  0  0  0  0  0  0  0  0  0  0  0
    1.3486    1.1291   -0.9621 C   0  0  0  0  0  0  0  0  0  0  0  0
    1.7282   -0.5624   -2.6952 C   0  0  0  0  0  0  0  0  0  0  0  0
    1.8297    0.4525   -3.6479 C   0  0  0  0  0  0  0  0  0  0  0  0
    1.4540    2.1275   -1.9364 C   0  0  0  0  0  0  0  0  0  0  0  0
    1.1851    1.4017    0.0906 H   0  0  0  0  0  0  0  0  0  0  0  0
    1.8134   -1.6091   -2.9880 H   0  0  0  0  0  0  0  0  0  0  0  0
    2.0065    0.1944   -4.6924 H   0  0  0  0  0  0  0  0  0  0  0  0
    1.3494    3.1729   -1.6446 H   0  0  0  0  0  0  0  0  0  0  0  0
    1.7797    2.5792   -4.0225 H   0  0  0  0  0  0  0  0  0  0  0  0
    3.5429   -2.5572   -1.0175 C   0  0  0  0  0  0  0  0  0  0  0  0
    5.7983   -3.0392   -2.5938 C   0  0  0  0  0  0  0  0  0  0  0  0
    4.4770   -1.5309   -1.2326 C   0  0  0  0  0  0  0  0  0  0  0  0
    3.7411   -3.8267   -1.5834 C   0  0  0  0  0  0  0  0  0  0  0  0
    4.8698   -4.0614   -2.3729 C   0  0  0  0  0  0  0  0  0  0  0  0
    5.6019   -1.7771   -2.0226 C   0  0  0  0  0  0  0  0  0  0  0  0
    4.3255   -0.5488   -0.7832 H   0  0  0  0  0  0  0  0  0  0  0  0
    3.0199   -4.6244   -1.3999 H   0  0  0  0  0  0  0  0  0  0  0  0
    5.0267   -5.0454   -2.8137 H   0  0  0  0  0  0  0  0  0  0  0  0
    6.3292   -0.9834   -2.1910 H   0  0  0  0  0  0  0  0  0  0  0  0
    6.6778   -3.2265   -3.2090 H   0  0  0  0  0  0  0  0  0  0  0  0
  1  2  1  0  0  0  0
  1  3  2  0  0  0  0
  3  4  1  0  0  0  0
  2  5  1  0  0  0  0
  5  6  1  0  0  0  0
  5  7  1  0  0  0  0
  7  8  1  0  0  0  0
  7  9  1  0  0  0  0
  7 10  1  0  0  0  0
  5 11  1  0  0  0  0
 11 12  1  0  0  0  0
 11 13  1  0  0  0  0
 11 14  1  0  0  0  0
  2 15  1  0  0  0  0
 15 24  1  0  0  0  0
 15 16  2  0  0  0  0
 16 17  1  0  0  0  0
 16 18  1  0  0  0  0
 18 19  1  0  0  0  0
 18 20  2  0  0  0  0
 20 21  1  0  0  0  0
 20 22  1  0  0  0  0
 22 24  2  0  0  0  0
 22 23  1  0  0  0  0
  3 24  1  0  0  0  0
  1 25  1  0  0  0  0
  1 26  1  0  0  0  0
 27 28  1  0  0  0  0
 27 31  1  0  0  0  0
 28 29  1  0  0  0  0
 30 31  1  0  0  0  0
 32 35  2  0  0  0  0
 35 36  1  0  0  0  0
 33 36  2  0  0  0  0
 33 37  1  0  0  0  0
 34 37  2  0  0  0  0
 32 34  1  0  0  0  0
 36 38  1  0  0  0  0
 37 39  1  0  0  0  0
 28 32  1  0  0  0  0
 29 30  2  0  0  0  0
 35 40  1  0  0  0  0
 34 41  1  0  0  0  0
 33 42  1  0  0  0  0
 43 46  2  0  0  0  0
 46 47  1  0  0  0  0
 44 47  2  0  0  0  0
 44 48  1  0  0  0  0
 45 48  2  0  0  0  0
 43 45  1  0  0  0  0
 47 51  1  0  0  0  0
 48 52  1  0  0  0  0
 44 53  1  0  0  0  0
 45 49  1  0  0  0  0
 46 50  1  0  0  0  0
 31 43  1  0  0  0  0
 54 57  2  0  0  0  0
 57 58  1  0  0  0  0
 55 58  2  0  0  0  0
 55 59  1  0  0  0  0
 56 59  2  0  0  0  0
 54 56  1  0  0  0  0
 58 62  1  0  0  0  0
 59 63  1  0  0  0  0
 55 64  1  0  0  0  0
 56 60  1  0  0  0  0
 57 61  1  0  0  0  0
 30 54  1  0  0  0  0
  1 27  1  0  0  0  0
M  END
> <FrozenCore-PM6_ENERGY>
473.747

> <RMSD_CONF_CG-CS>
0.236858

> <RMSD_CONF_GO-CS>
0.000000

> <UID>


> <DESCRIPTOR_DEFINITION_1>
desc1=( echo "1 * ( e( $hartree_to_kcalmol * ( ( $freeEnergyZ - $freeEnergyD ) - ( $freeEnergyX + 2*$G_Ethene - $freeEnergyD - 2*$G_Propene ) - $DDG_reference_HGII ) / $kT ) ) " | bc -l )

> <DESCRIPTOR_DEFINITION_2>
desc1=( echo "1 * ( e( $hartree_to_kcalmol * ( ( $freeEnergyZ - $freeEnergyD ) - ( $freeEnergyX + 2*$G_Ethene - $freeEnergyD - 2*$G_Propene ) - $DDG_reference_HGII ) / $kT ) ) " | bc -l )

> <DESCRIPTOR_DEFINITION_3>
desc1=( echo "1 * ( e( $hartree_to_kcalmol * ( ( $freeEnergyZ - $freeEnergyD ) - ( $freeEnergyX + 2*$G_Ethene - $freeEnergyD - 2*$G_Propene ) - $DDG_reference_HGII ) / $kT ) ) " | bc -l )

> <WEIGHT_DEFINITION_1>
w1=$( echo "1 / ( 1 + e( $hartree_to_kcalmol * ( ( ( $freeEnergyX + 2*$G_Ethene - $freeEnergyD - 2*$G_Propene ) ) - ( $DG_referenceProductionBarrier + $magnitude4 ) ) / $kT ) )" | bc -l )

> <WEIGHT_DEFINITION_2>
w1=$( echo "1 / ( 1 + e( $hartree_to_kcalmol * ( ( ( $freeEnergyX + 2*$G_Ethene - $freeEnergyD - 2*$G_Propene ) ) - ( $DG_referenceProductionBarrier + $magnitude4 ) ) / $kT ) )" | bc -l )

> <WEIGHT_DEFINITION_3>
w1=$( echo "1 / ( 1 + e( $hartree_to_kcalmol * ( ( ( $freeEnergyX + 2*$G_Ethene - $freeEnergyD - 2*$G_Propene ) ) - ( $DG_referenceProductionBarrier + $magnitude4 ) ) / $kT ) )" | bc -l )

> <WEIGHT_DEFINITION_4>
w1=$( echo "1 / ( 1 + e( $hartree_to_kcalmol * ( ( ( $freeEnergyX + 2*$G_Ethene - $freeEnergyD - 2*$G_Propene ) ) - ( $DG_referenceProductionBarrier + $magnitude4 ) ) / $kT ) )" | bc -l )

> <CALCULATION_OF_OVERALL_FITNESS>
fitness=$( echo "( $desc1 + $desc2 + $desc3 ) * ( $w1 * $w2 * $w3 * $w4 )" | bc -l )

> <freeEnergyA>
-2412.18214497

> <freeEnergyF>
-2412.16437414

> <freeEnergyE>
-2412.18214497

> <freeEnergyC>
-2066.91842584

> <freeEnergyL>
-934.328435173

> <freeEnergyX>
-2145.45244336

> <freeEnergyZ>
-2066.90692029

> <freeEnergyD>
-2066.94173096

> <G_Propene>
-117.738020895

> <G_Ethene>
-78.4716324751

> <G_HoveydaProd>
-502.204109499

> <G_SIMes>
-924.27249048

> <G_HG_RuCl2_SIMes>
-2402.13728523

> <DG_referenceProductionBarrier>
0.01468968

> <DG_referencePrecursorStabilityHII>
-0.0052201621

> <DG_referencePrecursorStabilityHI>
0.0117775312

> <DDG_referencePrecursorStability>
.0169976933

> <DG_referenceSynt>
0.0226072217

> <hartree_to_kcalmol>
627.49467516

> <boltzmann_constant>
0.0000000000000000000000138066

> <avogadro_number>
602214000000000000000000

> <jmol_to_kcalmol>
0.00023901

> <temp>
313.15

> <kT>
.6223089948281258706000000000

> <magnitude1>
1.43290809

> <magnitude2>
2.86581618

> <magnitude3>
4.29872427

> <magnitude4>
5.73163236

> <DFT_IDENTIFIER>
1722455422418

> <DFT_MACHINE>
158.36.42.38

> <XTB_IDENTIFIER>
NREC

> <XTB_MACHINE>
NREC

> <DESCRIPTOR_1>
.00007020432010597216

> <DESCRIPTOR_2>
7.998191578863581832

> <DESCRIPTOR_3>
.129881985337992600

> <WEIGHT_1>
.99991883760592074242

> <WEIGHT_2>
.99998737355975316949

> <WEIGHT_3>
.99999909998055296201

> <WEIGHT_4>
.99999834842569678689

> <FITNESS>
8.12736070995842659967

> <NAME>
H12

$$$$
