
  CDK     07312418183D

 56 60  0  0  0  0  0  0  0  0999 V2000
   -0.2520   -1.6988   -4.0013 C   0  0  0  0  0  0  0  0  0  0  0  0
    0.8172   -1.9660   -3.9326 H   0  0  0  0  0  0  0  0  0  0  0  0
   -0.6390   -1.9807   -5.0063 H   0  0  0  0  0  0  0  0  0  0  0  0
   -0.7993   -2.3017   -3.2529 H   0  0  0  0  0  0  0  0  0  0  0  0
   -0.4674   -0.2160   -3.8058 C   0  0  0  0  0  0  0  0  0  0  0  0
   -1.5122    0.1434   -3.8785 H   0  0  0  0  0  0  0  0  0  0  0  0
    0.5113    0.7402   -4.1835 C   0  0  0  0  0  0  0  0  0  0  0  0
    1.5180    0.3350   -4.3901 H   0  0  0  0  0  0  0  0  0  0  0  0
    0.1223    2.0332   -4.8585 C   0  0  0  0  0  0  0  0  0  0  0  0
    0.9545    2.7608   -4.8986 H   0  0  0  0  0  0  0  0  0  0  0  0
   -0.1734    1.8039   -5.9050 H   0  0  0  0  0  0  0  0  0  0  0  0
   -0.7450    2.4945   -4.3457 H   0  0  0  0  0  0  0  0  0  0  0  0
    1.3778    1.7621   -2.2888 C   0  0  0  0  0  0  0  0  0  0  0  0
    1.0765    2.8085   -2.5075 H   0  0  0  0  0  0  0  0  0  0  0  0
    2.4616    1.5168   -2.3441 H   0  0  0  0  0  0  0  0  0  0  0  0
    0.1360    0.5003   -1.8064 Ru  0  0  0  0  0  0  0  0  0  0  0  0
   -1.6587    2.1169   -1.8934 Cl  0  0  0  0  0  0  0  0  0  0  0  0
    1.9091   -1.1166   -1.6593 Cl  0  0  0  0  0  0  0  0  0  0  0  0
    0.1092    0.4105    0.1750 C   0  0  0  0  0  0  0  0  0  0  0  0
   -0.4289   -0.5928    0.9315 N   0  0  0  0  0  0  0  0  0  0  0  0
   -0.1276   -0.5121    2.2687 N   0  0  0  0  0  0  0  0  0  0  0  0
    0.6085    0.5814    2.3713 C   0  0  0  0  0  0  0  0  0  0  0  0
    0.7603    1.1816    1.1133 N   0  0  0  0  0  0  0  0  0  0  0  0
   -1.2197   -1.6452    0.4097 C   0  0  0  0  0  0  0  0  0  0  0  0
   -2.7330   -3.7128   -0.7032 C   0  0  0  0  0  0  0  0  0  0  0  0
   -1.2689   -2.8863    1.0622 C   0  0  0  0  0  0  0  0  0  0  0  0
   -1.9339   -1.4168   -0.7786 C   0  0  0  0  0  0  0  0  0  0  0  0
   -2.6836   -2.4619   -1.3360 C   0  0  0  0  0  0  0  0  0  0  0  0
   -2.0311   -3.9158    0.4974 C   0  0  0  0  0  0  0  0  0  0  0  0
   -3.2498   -2.2832   -2.2610 H   0  0  0  0  0  0  0  0  0  0  0  0
   -2.0699   -4.8937    0.9981 H   0  0  0  0  0  0  0  0  0  0  0  0
   -1.9822   -0.3978   -1.2153 H   0  0  0  0  0  0  0  0  0  0  0  0
   -0.7049   -3.0259    1.9927 H   0  0  0  0  0  0  0  0  0  0  0  0
   -3.3265   -4.5286   -1.1391 H   0  0  0  0  0  0  0  0  0  0  0  0
    1.5450    2.3375    0.7935 C   0  0  0  0  0  0  0  0  0  0  0  0
    3.0650    4.5985    0.2054 C   0  0  0  0  0  0  0  0  0  0  0  0
    0.9052    3.4770    0.2805 C   0  0  0  0  0  0  0  0  0  0  0  0
    2.9322    2.3027    0.9960 C   0  0  0  0  0  0  0  0  0  0  0  0
    3.6904    3.4447    0.7046 C   0  0  0  0  0  0  0  0  0  0  0  0
    1.6779    4.6098   -0.0129 C   0  0  0  0  0  0  0  0  0  0  0  0
   -0.1760    3.4478    0.0822 H   0  0  0  0  0  0  0  0  0  0  0  0
    3.4028    1.3847    1.3720 H   0  0  0  0  0  0  0  0  0  0  0  0
    4.7782    3.4282    0.8610 H   0  0  0  0  0  0  0  0  0  0  0  0
    1.1881    5.5056   -0.4204 H   0  0  0  0  0  0  0  0  0  0  0  0
    3.6643    5.4915   -0.0232 H   0  0  0  0  0  0  0  0  0  0  0  0
    1.1518    1.0687    3.6438 C   0  0  0  0  0  0  0  0  0  0  0  0
    2.1397    1.9039    6.1470 C   0  0  0  0  0  0  0  0  0  0  0  0
    1.3507    2.4414    3.9084 C   0  0  0  0  0  0  0  0  0  0  0  0
    1.4413    0.1210    4.6511 C   0  0  0  0  0  0  0  0  0  0  0  0
    1.9319    0.5384    5.8924 C   0  0  0  0  0  0  0  0  0  0  0  0
    1.8432    2.8500    5.1543 C   0  0  0  0  0  0  0  0  0  0  0  0
    1.1060    3.1932    3.1475 H   0  0  0  0  0  0  0  0  0  0  0  0
    1.2767   -0.9437    4.4383 H   0  0  0  0  0  0  0  0  0  0  0  0
    2.1590   -0.2086    6.6664 H   0  0  0  0  0  0  0  0  0  0  0  0
    1.9909    3.9213    5.3511 H   0  0  0  0  0  0  0  0  0  0  0  0
    2.5302    2.2306    7.1214 H   0  0  0  0  0  0  0  0  0  0  0  0
  1  2  1  0  0  0  0
  1  5  1  0  0  0  0
  1  3  1  0  0  0  0
  1  4  1  0  0  0  0
  5  6  1  0  0  0  0
  5 16  1  0  0  0  0
  5  7  1  0  0  0  0
  7  9  1  0  0  0  0
  7  8  1  0  0  0  0
  9 10  1  0  0  0  0
  9 11  1  0  0  0  0
  9 12  1  0  0  0  0
 13 14  1  0  0  0  0
 13 15  1  0  0  0  0
  7 13  1  0  0  0  0
 13 16  1  0  0  0  0
 16 17  1  0  0  0  0
 16 18  1  0  0  0  0
 19 20  1  0  0  0  0
 19 23  1  0  0  0  0
 20 21  1  0  0  0  0
 22 23  1  0  0  0  0
 24 27  2  0  0  0  0
 27 28  1  0  0  0  0
 25 28  2  0  0  0  0
 25 29  1  0  0  0  0
 26 29  2  0  0  0  0
 24 26  1  0  0  0  0
 28 30  1  0  0  0  0
 29 31  1  0  0  0  0
 20 24  1  0  0  0  0
 21 22  2  0  0  0  0
 27 32  1  0  0  0  0
 26 33  1  0  0  0  0
 25 34  1  0  0  0  0
 35 38  2  0  0  0  0
 38 39  1  0  0  0  0
 36 39  2  0  0  0  0
 36 40  1  0  0  0  0
 37 40  2  0  0  0  0
 35 37  1  0  0  0  0
 39 43  1  0  0  0  0
 40 44  1  0  0  0  0
 36 45  1  0  0  0  0
 37 41  1  0  0  0  0
 38 42  1  0  0  0  0
 23 35  1  0  0  0  0
 46 49  2  0  0  0  0
 49 50  1  0  0  0  0
 47 50  2  0  0  0  0
 47 51  1  0  0  0  0
 48 51  2  0  0  0  0
 46 48  1  0  0  0  0
 50 54  1  0  0  0  0
 51 55  1  0  0  0  0
 47 56  1  0  0  0  0
 48 52  1  0  0  0  0
 49 53  1  0  0  0  0
 22 46  1  0  0  0  0
 16 19  1  0  0  0  0
M  END
>  <DFT-ENERGY>
-2145.45244303

$$$$
