
  CDK     07312420053D

 50 55  0  0  0  0  0  0  0  0999 V2000
    0.5457    0.6686   -3.8792 H   0  0  0  0  0  0  0  0  0  0  0  0
    1.7751    0.6325   -3.9147 C   0  0  0  0  0  0  0  0  0  0  0  0
    1.7280    0.7121   -5.0230 H   0  0  0  0  0  0  0  0  0  0  0  0
    2.0486   -0.6419   -3.1863 C   0  0  0  0  0  0  0  0  0  0  0  0
    3.0003   -0.7223   -2.6354 H   0  0  0  0  0  0  0  0  0  0  0  0
    1.7116   -1.5691   -3.6811 H   0  0  0  0  0  0  0  0  0  0  0  0
    0.6236    0.4165   -2.1251 Ru  0  0  0  0  0  0  0  0  0  0  0  0
    2.0129    1.7845   -3.0344 C   0  0  0  0  0  0  0  0  0  0  0  0
    2.9342    1.8164   -2.4399 H   0  0  0  0  0  0  0  0  0  0  0  0
    1.5953    2.7602   -3.3363 H   0  0  0  0  0  0  0  0  0  0  0  0
    2.2190    0.7499   -0.3044 Cl  0  0  0  0  0  0  0  0  0  0  0  0
   -1.2105   -0.7160   -3.1903 Cl  0  0  0  0  0  0  0  0  0  0  0  0
   -0.2456   -0.2447   -0.3938 C   0  0  0  0  0  0  0  0  0  0  0  0
   -0.3025   -1.3480    0.3937 N   0  0  0  0  0  0  0  0  0  0  0  0
   -0.9847   -1.1349    1.5727 N   0  0  0  0  0  0  0  0  0  0  0  0
   -1.3851    0.1277    1.5125 C   0  0  0  0  0  0  0  0  0  0  0  0
   -0.9724    0.6850    0.3054 N   0  0  0  0  0  0  0  0  0  0  0  0
    0.3565   -2.5947    0.1768 C   0  0  0  0  0  0  0  0  0  0  0  0
    1.7022   -5.0049   -0.2269 C   0  0  0  0  0  0  0  0  0  0  0  0
    0.8378   -3.3073    1.2862 C   0  0  0  0  0  0  0  0  0  0  0  0
    0.5208   -3.0748   -1.1310 C   0  0  0  0  0  0  0  0  0  0  0  0
    1.2054   -4.2825   -1.3224 C   0  0  0  0  0  0  0  0  0  0  0  0
    1.5093   -4.5177    1.0758 C   0  0  0  0  0  0  0  0  0  0  0  0
    1.3375   -4.6666   -2.3440 H   0  0  0  0  0  0  0  0  0  0  0  0
    1.8931   -5.0796    1.9391 H   0  0  0  0  0  0  0  0  0  0  0  0
    0.0948   -2.5149   -1.9736 H   0  0  0  0  0  0  0  0  0  0  0  0
    0.6841   -2.9018    2.2938 H   0  0  0  0  0  0  0  0  0  0  0  0
    2.2355   -5.9529   -0.3866 H   0  0  0  0  0  0  0  0  0  0  0  0
   -0.9548    2.0348   -0.1881 C   0  0  0  0  0  0  0  0  0  0  0  0
   -0.7068    4.5813   -1.2925 C   0  0  0  0  0  0  0  0  0  0  0  0
   -1.4666    2.2744   -1.4773 C   0  0  0  0  0  0  0  0  0  0  0  0
   -0.3191    3.0423    0.5541 C   0  0  0  0  0  0  0  0  0  0  0  0
   -0.2093    4.3207   -0.0022 C   0  0  0  0  0  0  0  0  0  0  0  0
   -1.3310    3.5639   -2.0247 C   0  0  0  0  0  0  0  0  0  0  0  0
   -1.9932    1.4755   -2.0183 H   0  0  0  0  0  0  0  0  0  0  0  0
    0.1077    2.8069    1.5370 H   0  0  0  0  0  0  0  0  0  0  0  0
    0.2931    5.1162    0.5658 H   0  0  0  0  0  0  0  0  0  0  0  0
   -1.7276    3.7635   -3.0302 H   0  0  0  0  0  0  0  0  0  0  0  0
   -0.6035    5.5865   -1.7255 H   0  0  0  0  0  0  0  0  0  0  0  0
   -2.1701    0.7895    2.5563 C   0  0  0  0  0  0  0  0  0  0  0  0
   -3.6813    1.9838    4.6103 C   0  0  0  0  0  0  0  0  0  0  0  0
   -3.0056    1.8923    2.2751 C   0  0  0  0  0  0  0  0  0  0  0  0
   -2.1086    0.2835    3.8738 C   0  0  0  0  0  0  0  0  0  0  0  0
   -2.8604    0.8791    4.8913 C   0  0  0  0  0  0  0  0  0  0  0  0
   -3.7533    2.4836    3.3012 C   0  0  0  0  0  0  0  0  0  0  0  0
   -3.0841    2.2795    1.2509 H   0  0  0  0  0  0  0  0  0  0  0  0
   -1.4612   -0.5793    4.0797 H   0  0  0  0  0  0  0  0  0  0  0  0
   -2.8026    0.4808    5.9143 H   0  0  0  0  0  0  0  0  0  0  0  0
   -4.4035    3.3399    3.0723 H   0  0  0  0  0  0  0  0  0  0  0  0
   -4.2683    2.4532    5.4126 H   0  0  0  0  0  0  0  0  0  0  0  0
  1  2  1  0  0  0  0
  1  7  1  0  0  0  0
  2  3  1  0  0  0  0
  2  4  1  0  0  0  0
  4  5  1  0  0  0  0
  6  4  1  0  0  0  0
  7  8  1  0  0  0  0
  7  4  1  0  0  0  0
  8  2  1  0  0  0  0
  8  9  1  0  0  0  0
 10  8  1  0  0  0  0
  7 11  1  0  0  0  0
  7 12  1  0  0  0  0
 13 14  1  0  0  0  0
 13 17  1  0  0  0  0
 14 15  1  0  0  0  0
 16 17  1  0  0  0  0
 18 21  2  0  0  0  0
 21 22  1  0  0  0  0
 19 22  2  0  0  0  0
 19 23  1  0  0  0  0
 20 23  2  0  0  0  0
 18 20  1  0  0  0  0
 22 24  1  0  0  0  0
 23 25  1  0  0  0  0
 14 18  1  0  0  0  0
 15 16  2  0  0  0  0
 21 26  1  0  0  0  0
 20 27  1  0  0  0  0
 19 28  1  0  0  0  0
 29 32  2  0  0  0  0
 32 33  1  0  0  0  0
 30 33  2  0  0  0  0
 30 34  1  0  0  0  0
 31 34  2  0  0  0  0
 29 31  1  0  0  0  0
 33 37  1  0  0  0  0
 34 38  1  0  0  0  0
 30 39  1  0  0  0  0
 31 35  1  0  0  0  0
 32 36  1  0  0  0  0
 17 29  1  0  0  0  0
 40 43  2  0  0  0  0
 43 44  1  0  0  0  0
 41 44  2  0  0  0  0
 41 45  1  0  0  0  0
 42 45  2  0  0  0  0
 40 42  1  0  0  0  0
 44 48  1  0  0  0  0
 45 49  1  0  0  0  0
 41 50  1  0  0  0  0
 42 46  1  0  0  0  0
 43 47  1  0  0  0  0
 16 40  1  0  0  0  0
  7 13  1  0  0  0  0
M  END
>  <DFT-ENERGY>
-2066.9069205

$$$$
