
  CDK     08132412213D

 43 46  0  0  0  0  0  0  0  0999 V2000
    1.1280    0.6684   -0.1175 Ru  0  0  0  0  0  0  0  0  0  0  0  0
    2.1343    1.4982   -1.5773 C   0  0  0  0  0  0  0  0  0  0  0  0
    1.6606    2.3963   -2.0126 H   0  0  0  0  0  0  0  0  0  0  0  0
    3.0442    1.8224   -0.3241 C   0  0  0  0  0  0  0  0  0  0  0  0
    3.0895    2.9239   -0.2494 H   0  0  0  0  0  0  0  0  0  0  0  0
    2.5385    1.3047    1.0826 C   0  0  0  0  0  0  0  0  0  0  0  0
    3.1762    0.5079    1.5057 H   0  0  0  0  0  0  0  0  0  0  0  0
    2.2481    2.1211    1.7677 H   0  0  0  0  0  0  0  0  0  0  0  0
    4.0157    1.3296   -0.5092 H   0  0  0  0  0  0  0  0  0  0  0  0
    2.6063    0.7953   -2.2869 H   0  0  0  0  0  0  0  0  0  0  0  0
   -0.0422    2.7173    0.2507 Cl  0  0  0  0  0  0  0  0  0  0  0  0
    2.3345   -1.3562   -0.4887 Cl  0  0  0  0  0  0  0  0  0  0  0  0
   -0.5610   -0.3359    0.0602 C   0  0  0  0  0  0  0  0  0  0  0  0
   -1.2405   -0.9157   -0.9580 N   0  0  0  0  0  0  0  0  0  0  0  0
   -2.3972   -1.7011   -0.4741 C   0  0  0  0  0  0  0  0  0  0  0  0
   -2.5338   -1.2179    0.9824 C   0  0  0  0  0  0  0  0  0  0  0  0
   -1.2327   -0.5533    1.2161 N   0  0  0  0  0  0  0  0  0  0  0  0
   -3.2945   -1.4843   -1.0838 H   0  0  0  0  0  0  0  0  0  0  0  0
   -2.1627   -2.7827   -0.5409 H   0  0  0  0  0  0  0  0  0  0  0  0
   -2.6780   -2.0489    1.6983 H   0  0  0  0  0  0  0  0  0  0  0  0
   -3.3525   -0.4809    1.1086 H   0  0  0  0  0  0  0  0  0  0  0  0
   -0.8898    0.1040    2.4246 C   0  0  0  0  0  0  0  0  0  0  0  0
   -0.1524    1.4679    4.7730 C   0  0  0  0  0  0  0  0  0  0  0  0
    0.2283   -0.2981    3.1787 C   0  0  0  0  0  0  0  0  0  0  0  0
   -1.6287    1.2063    2.8922 C   0  0  0  0  0  0  0  0  0  0  0  0
   -1.2831    1.8892    4.0575 C   0  0  0  0  0  0  0  0  0  0  0  0
    0.6141    0.3770    4.3399 C   0  0  0  0  0  0  0  0  0  0  0  0
   -1.8849    2.7515    4.3701 H   0  0  0  0  0  0  0  0  0  0  0  0
    1.5018    0.0332    4.8856 H   0  0  0  0  0  0  0  0  0  0  0  0
   -0.6861   -1.0492   -2.2564 C   0  0  0  0  0  0  0  0  0  0  0  0
    0.5030   -1.2901   -4.7951 C   0  0  0  0  0  0  0  0  0  0  0  0
   -0.1328   -2.2675   -2.6915 C   0  0  0  0  0  0  0  0  0  0  0  0
   -0.6318    0.0443   -3.1405 C   0  0  0  0  0  0  0  0  0  0  0  0
   -0.0335   -0.0569   -4.3995 C   0  0  0  0  0  0  0  0  0  0  0  0
    0.4538   -2.4077   -3.9485 C   0  0  0  0  0  0  0  0  0  0  0  0
   -0.0038    0.8280   -5.0476 H   0  0  0  0  0  0  0  0  0  0  0  0
    0.8842   -3.3759   -4.2327 H   0  0  0  0  0  0  0  0  0  0  0  0
    0.1403    2.0056    5.6854 H   0  0  0  0  0  0  0  0  0  0  0  0
    0.9750   -1.3820   -5.7830 H   0  0  0  0  0  0  0  0  0  0  0  0
   -2.7020    1.5991    2.1732 F   0  0  0  0  0  0  0  0  0  0  0  0
    0.9517   -1.3487    2.7445 F   0  0  0  0  0  0  0  0  0  0  0  0
   -1.1523    1.2208   -2.7404 F   0  0  0  0  0  0  0  0  0  0  0  0
   -0.1813   -3.3206   -1.8480 F   0  0  0  0  0  0  0  0  0  0  0  0
  2  4  1  0  0  0  0
  2  1  1  0  0  0  0
  2  3  1  0  0  0  0
  4  6  1  0  0  0  0
  4  5  1  0  0  0  0
  6  1  1  0  0  0  0
  6  8  1  0  0  0  0
  7  6  1  0  0  0  0
  9  4  1  0  0  0  0
 10  2  1  0  0  0  0
  1 11  1  0  0  0  0
  1 12  1  0  0  0  0
 13 14  1  0  0  0  0
 13 17  1  0  0  0  0
 14 15  1  0  0  0  0
 15 18  1  0  0  0  0
 15 19  1  0  0  0  0
 15 16  1  0  0  0  0
 16 20  1  0  0  0  0
 16 21  1  0  0  0  0
 16 17  1  0  0  0  0
 22 25  2  0  0  0  0
 25 26  1  0  0  0  0
 23 26  2  0  0  0  0
 23 27  1  0  0  0  0
 24 27  2  0  0  0  0
 22 24  1  0  0  0  0
 26 28  1  0  0  0  0
 27 29  1  0  0  0  0
 17 22  1  0  0  0  0
 30 33  2  0  0  0  0
 33 34  1  0  0  0  0
 31 34  2  0  0  0  0
 31 35  1  0  0  0  0
 32 35  2  0  0  0  0
 30 32  1  0  0  0  0
 34 36  1  0  0  0  0
 35 37  1  0  0  0  0
 14 30  1  0  0  0  0
 23 38  1  0  0  0  0
 31 39  1  0  0  0  0
 25 40  1  0  0  0  0
 24 41  1  0  0  0  0
 33 42  1  0  0  0  0
 32 43  1  0  0  0  0
  1 13  1  0  0  0  0
M  END
>  <DFT-ENERGY>
-2217.92427018

$$$$
