
  CDK     08132406173D

 49 52  0  0  0  0  0  0  0  0999 V2000
   -0.4291   -2.1521    2.9166 C   0  0  0  0  0  0  0  0  0  0  0  0
    0.6310   -2.4615    2.9071 H   0  0  0  0  0  0  0  0  0  0  0  0
   -0.9174   -2.5098    3.8508 H   0  0  0  0  0  0  0  0  0  0  0  0
   -0.9333   -2.6628    2.0740 H   0  0  0  0  0  0  0  0  0  0  0  0
   -0.5768   -0.6496    2.8429 C   0  0  0  0  0  0  0  0  0  0  0  0
   -1.6084   -0.2565    2.9123 H   0  0  0  0  0  0  0  0  0  0  0  0
    0.4374    0.2405    3.2895 C   0  0  0  0  0  0  0  0  0  0  0  0
    1.4280   -0.2052    3.4879 H   0  0  0  0  0  0  0  0  0  0  0  0
    0.0687    1.5111    4.0190 C   0  0  0  0  0  0  0  0  0  0  0  0
    0.9140    2.2204    4.0972 H   0  0  0  0  0  0  0  0  0  0  0  0
   -0.2434    1.2451    5.0520 H   0  0  0  0  0  0  0  0  0  0  0  0
   -0.7849    2.0098    3.5183 H   0  0  0  0  0  0  0  0  0  0  0  0
    1.2647    1.3809    1.4453 C   0  0  0  0  0  0  0  0  0  0  0  0
    0.8863    2.4060    1.6463 H   0  0  0  0  0  0  0  0  0  0  0  0
    2.3568    1.1947    1.5422 H   0  0  0  0  0  0  0  0  0  0  0  0
    0.1328    0.0463    0.9022 Ru  0  0  0  0  0  0  0  0  0  0  0  0
   -1.7570    1.5329    0.9716 Cl  0  0  0  0  0  0  0  0  0  0  0  0
    2.0049   -1.4489    0.8290 Cl  0  0  0  0  0  0  0  0  0  0  0  0
   -0.0230   -0.0149   -1.0752 C   0  0  0  0  0  0  0  0  0  0  0  0
    0.7949    0.5690   -1.9926 N   0  0  0  0  0  0  0  0  0  0  0  0
    0.4625    0.1673   -3.3758 C   0  0  0  0  0  0  0  0  0  0  0  0
   -0.9510   -0.4093   -3.2119 C   0  0  0  0  0  0  0  0  0  0  0  0
   -1.0043   -0.6704   -1.7577 N   0  0  0  0  0  0  0  0  0  0  0  0
    0.4948    1.0421   -4.0520 H   0  0  0  0  0  0  0  0  0  0  0  0
    1.1919   -0.5926   -3.7264 H   0  0  0  0  0  0  0  0  0  0  0  0
   -1.1029   -1.3459   -3.7805 H   0  0  0  0  0  0  0  0  0  0  0  0
   -1.7394    0.3198   -3.4901 H   0  0  0  0  0  0  0  0  0  0  0  0
   -2.1573   -1.1893   -1.1186 C   0  0  0  0  0  0  0  0  0  0  0  0
   -4.4381   -2.2019    0.1912 C   0  0  0  0  0  0  0  0  0  0  0  0
   -2.1204   -2.4148   -0.4288 C   0  0  0  0  0  0  0  0  0  0  0  0
   -3.3845   -0.4986   -1.1430 C   0  0  0  0  0  0  0  0  0  0  0  0
   -4.5237   -0.9868   -0.5041 C   0  0  0  0  0  0  0  0  0  0  0  0
   -3.2381   -2.9250    0.2378 C   0  0  0  0  0  0  0  0  0  0  0  0
   -5.4490   -0.3984   -0.5404 H   0  0  0  0  0  0  0  0  0  0  0  0
   -3.1532   -3.8810    0.7697 H   0  0  0  0  0  0  0  0  0  0  0  0
    2.0260    1.1883   -1.6720 C   0  0  0  0  0  0  0  0  0  0  0  0
    4.4652    2.4081   -0.9818 C   0  0  0  0  0  0  0  0  0  0  0  0
    3.2420    0.4877   -1.7621 C   0  0  0  0  0  0  0  0  0  0  0  0
    2.0739    2.5296   -1.2496 C   0  0  0  0  0  0  0  0  0  0  0  0
    3.2760    3.1469   -0.8924 C   0  0  0  0  0  0  0  0  0  0  0  0
    4.4612    1.0761   -1.4211 C   0  0  0  0  0  0  0  0  0  0  0  0
    3.2613    4.1912   -0.5557 H   0  0  0  0  0  0  0  0  0  0  0  0
    5.3804    0.4815   -1.4924 H   0  0  0  0  0  0  0  0  0  0  0  0
   -5.3248   -2.5917    0.7098 H   0  0  0  0  0  0  0  0  0  0  0  0
    5.4168    2.8814   -0.7028 H   0  0  0  0  0  0  0  0  0  0  0  0
   -3.4406    0.6695   -1.8152 F   0  0  0  0  0  0  0  0  0  0  0  0
   -0.9544   -3.0962   -0.3918 F   0  0  0  0  0  0  0  0  0  0  0  0
    0.9183    3.2183   -1.1705 F   0  0  0  0  0  0  0  0  0  0  0  0
    3.2075   -0.7848   -2.2053 F   0  0  0  0  0  0  0  0  0  0  0  0
  1  2  1  0  0  0  0
  1  5  1  0  0  0  0
  3  1  1  0  0  0  0
  4  1  1  0  0  0  0
  5  6  1  0  0  0  0
  5 16  1  0  0  0  0
  5  7  1  0  0  0  0
  7  9  1  0  0  0  0
  7  8  1  0  0  0  0
  9 10  1  0  0  0  0
 11  9  1  0  0  0  0
 12  9  1  0  0  0  0
 13 14  1  0  0  0  0
 13 15  1  0  0  0  0
 13  7  1  0  0  0  0
 16 13  1  0  0  0  0
 16 17  1  0  0  0  0
 16 18  1  0  0  0  0
 19 20  1  0  0  0  0
 19 23  1  0  0  0  0
 20 21  1  0  0  0  0
 21 24  1  0  0  0  0
 21 25  1  0  0  0  0
 21 22  1  0  0  0  0
 22 26  1  0  0  0  0
 22 27  1  0  0  0  0
 22 23  1  0  0  0  0
 28 31  2  0  0  0  0
 31 32  1  0  0  0  0
 29 32  2  0  0  0  0
 29 33  1  0  0  0  0
 30 33  2  0  0  0  0
 28 30  1  0  0  0  0
 32 34  1  0  0  0  0
 33 35  1  0  0  0  0
 23 28  1  0  0  0  0
 36 39  2  0  0  0  0
 39 40  1  0  0  0  0
 37 40  2  0  0  0  0
 37 41  1  0  0  0  0
 38 41  2  0  0  0  0
 36 38  1  0  0  0  0
 40 42  1  0  0  0  0
 41 43  1  0  0  0  0
 20 36  1  0  0  0  0
 29 44  1  0  0  0  0
 37 45  1  0  0  0  0
 31 46  1  0  0  0  0
 30 47  1  0  0  0  0
 39 48  1  0  0  0  0
 38 49  1  0  0  0  0
 16 19  1  0  0  0  0
M  END
>  <DFT-ENERGY>
-2296.43269829

$$$$
