DFP-2_A2
  CDK     08122422353D

 57 61  0  0  0  0  0  0  0  0999 V2000
    0.1748   -0.1358   -0.3199 Ru  0  0  0  0  0  0  0  0  0  0  0  0
    1.9526   -0.1358   -1.7091 O   0  0  0  0  0  0  0  0  0  0  0  0
    1.3850    0.7975    0.6842 C   0  0  0  0  0  0  0  0  0  0  0  0
    1.1522    1.0904    1.7069 H   0  0  0  0  0  0  0  0  0  0  0  0
    2.1881   -0.9110   -2.9349 C   0  0  0  0  0  0  0  0  0  0  0  0
    2.5990   -0.2115   -3.6934 H   0  0  0  0  0  0  0  0  0  0  0  0
    0.7654   -1.3501   -3.2530 C   0  0  0  0  0  0  0  0  0  0  0  0
    0.6973   -1.8454   -4.2246 H   0  0  0  0  0  0  0  0  0  0  0  0
    0.3818   -2.0497   -2.4828 H   0  0  0  0  0  0  0  0  0  0  0  0
    0.0815   -0.4760   -3.2611 H   0  0  0  0  0  0  0  0  0  0  0  0
    3.1237   -2.0581   -2.5998 C   0  0  0  0  0  0  0  0  0  0  0  0
    3.1192   -2.8303   -3.3753 H   0  0  0  0  0  0  0  0  0  0  0  0
    4.1575   -1.7309   -2.4477 H   0  0  0  0  0  0  0  0  0  0  0  0
    2.8032   -2.5417   -1.6548 H   0  0  0  0  0  0  0  0  0  0  0  0
    2.9448    0.6626   -1.2041 C   0  0  0  0  0  0  0  0  0  0  0  0
    4.1139    1.0115   -1.8571 C   0  0  0  0  0  0  0  0  0  0  0  0
    4.3329    0.6615   -2.8632 H   0  0  0  0  0  0  0  0  0  0  0  0
    5.0151    1.8425   -1.1996 C   0  0  0  0  0  0  0  0  0  0  0  0
    5.9375    2.1303   -1.7085 H   0  0  0  0  0  0  0  0  0  0  0  0
    4.7651    2.3140    0.0857 C   0  0  0  0  0  0  0  0  0  0  0  0
    5.4900    2.9586    0.5799 H   0  0  0  0  0  0  0  0  0  0  0  0
    3.5954    1.9537    0.7273 C   0  0  0  0  0  0  0  0  0  0  0  0
    3.4022    2.3083    1.7386 H   0  0  0  0  0  0  0  0  0  0  0  0
    2.6599    1.1383    0.0879 C   0  0  0  0  0  0  0  0  0  0  0  0
    0.7746   -2.3285    0.2406 Cl  0  0  0  0  0  0  0  0  0  0  0  0
   -0.6395    1.5520   -1.6646 Cl  0  0  0  0  0  0  0  0  0  0  0  0
   -1.3775   -0.1327    0.8493 C   0  0  0  0  0  0  0  0  0  0  0  0
   -1.8077    0.4444    2.0463 N   0  0  0  0  0  0  0  0  0  0  0  0
   -3.2089    0.0504    2.4453 C   0  0  0  0  0  0  0  0  0  0  0  0
   -3.6640   -0.8861    1.3047 C   0  0  0  0  0  0  0  0  0  0  0  0
   -2.4596   -0.9191    0.4135 N   0  0  0  0  0  0  0  0  0  0  0  0
   -3.1967   -0.4612    3.4287 H   0  0  0  0  0  0  0  0  0  0  0  0
   -3.8483    0.9523    2.5286 H   0  0  0  0  0  0  0  0  0  0  0  0
   -4.5422   -0.4895    0.7558 H   0  0  0  0  0  0  0  0  0  0  0  0
   -3.9112   -1.9045    1.6665 H   0  0  0  0  0  0  0  0  0  0  0  0
   -2.4496   -1.7066   -0.7785 C   0  0  0  0  0  0  0  0  0  0  0  0
   -2.4812   -3.2783   -3.1361 C   0  0  0  0  0  0  0  0  0  0  0  0
   -2.8158   -1.1636   -2.0326 C   0  0  0  0  0  0  0  0  0  0  0  0
   -2.0981   -3.0777   -0.7654 C   0  0  0  0  0  0  0  0  0  0  0  0
   -2.1094   -3.8634   -1.9229 C   0  0  0  0  0  0  0  0  0  0  0  0
   -2.8373   -1.9277   -3.2030 C   0  0  0  0  0  0  0  0  0  0  0  0
   -1.8219   -4.9149   -1.8777 H   0  0  0  0  0  0  0  0  0  0  0  0
   -3.1241   -1.4751   -4.1530 H   0  0  0  0  0  0  0  0  0  0  0  0
   -1.1052    1.3361    2.9106 C   0  0  0  0  0  0  0  0  0  0  0  0
    0.2306    3.1118    4.6763 C   0  0  0  0  0  0  0  0  0  0  0  0
   -1.1496    2.7384    2.7382 C   0  0  0  0  0  0  0  0  0  0  0  0
   -0.3748    0.8734    4.0294 C   0  0  0  0  0  0  0  0  0  0  0  0
    0.2915    1.7338    4.9052 C   0  0  0  0  0  0  0  0  0  0  0  0
   -0.4909    3.6249    3.5953 C   0  0  0  0  0  0  0  0  0  0  0  0
    0.8519    1.3371    5.7533 H   0  0  0  0  0  0  0  0  0  0  0  0
   -0.5388    4.7014    3.4209 H   0  0  0  0  0  0  0  0  0  0  0  0
   -2.4949   -3.8842   -4.0445 H   0  0  0  0  0  0  0  0  0  0  0  0
    0.7502    3.7946    5.3521 H   0  0  0  0  0  0  0  0  0  0  0  0
   -1.7836   -3.6550    0.3867 F   0  0  0  0  0  0  0  0  0  0  0  0
   -3.1651    0.1154   -2.1043 F   0  0  0  0  0  0  0  0  0  0  0  0
   -0.3216   -0.4325    4.2707 F   0  0  0  0  0  0  0  0  0  0  0  0
   -1.8530    3.2435    1.7315 F   0  0  0  0  0  0  0  0  0  0  0  0
  2  1  1  0  0  0  0
  3  1  2  0  0  0  0
  4  3  1  0  0  0  0
  5  2  1  0  0  0  0
  6  5  1  0  0  0  0
  7  5  1  0  0  0  0
  8  7  1  0  0  0  0
  9  7  1  0  0  0  0
 10  7  1  0  0  0  0
 11  5  1  0  0  0  0
 12 11  1  0  0  0  0
 13 11  1  0  0  0  0
 14 11  1  0  0  0  0
 15  2  1  0  0  0  0
 15 24  1  0  0  0  0
 16 15  2  0  0  0  0
 17 16  1  0  0  0  0
 18 16  1  0  0  0  0
 19 18  1  0  0  0  0
 20 18  2  0  0  0  0
 21 20  1  0  0  0  0
 22 20  1  0  0  0  0
 22 24  2  0  0  0  0
 23 22  1  0  0  0  0
 24  3  1  0  0  0  0
  1 25  1  0  0  0  0
  1 26  1  0  0  0  0
 27 28  1  0  0  0  0
 27 31  1  0  0  0  0
 28 29  1  0  0  0  0
 29 32  1  0  0  0  0
 29 33  1  0  0  0  0
 29 30  1  0  0  0  0
 30 34  1  0  0  0  0
 30 35  1  0  0  0  0
 30 31  1  0  0  0  0
 36 39  2  0  0  0  0
 39 40  1  0  0  0  0
 37 40  2  0  0  0  0
 37 41  1  0  0  0  0
 38 41  2  0  0  0  0
 36 38  1  0  0  0  0
 40 42  1  0  0  0  0
 41 43  1  0  0  0  0
 31 36  1  0  0  0  0
 44 47  2  0  0  0  0
 47 48  1  0  0  0  0
 45 48  2  0  0  0  0
 45 49  1  0  0  0  0
 46 49  2  0  0  0  0
 44 46  1  0  0  0  0
 48 50  1  0  0  0  0
 49 51  1  0  0  0  0
 28 44  1  0  0  0  0
 37 52  1  0  0  0  0
 45 53  1  0  0  0  0
 39 54  1  0  0  0  0
 38 55  1  0  0  0  0
 47 56  1  0  0  0  0
 46 57  1  0  0  0  0
  1 27  1  0  0  0  0
M  END
> <FrozenCore-PM6_ENERGY>
-486.937

> <RMSD_CONF_CG-CS>
0.343969

> <RMSD_CONF_GO-CS>
0.000000

> <UID>


> <DESCRIPTOR_DEFINITION_1>
desc1=( echo "1 * ( e( $hartree_to_kcalmol * ( ( $freeEnergyZ - $freeEnergyD ) - ( $freeEnergyX + 2*$G_Ethene - $freeEnergyD - 2*$G_Propene ) - $DDG_reference_HGII ) / $kT ) ) " | bc -l )

> <DESCRIPTOR_DEFINITION_2>
desc1=( echo "1 * ( e( $hartree_to_kcalmol * ( ( $freeEnergyZ - $freeEnergyD ) - ( $freeEnergyX + 2*$G_Ethene - $freeEnergyD - 2*$G_Propene ) - $DDG_reference_HGII ) / $kT ) ) " | bc -l )

> <DESCRIPTOR_DEFINITION_3>
desc1=( echo "1 * ( e( $hartree_to_kcalmol * ( ( $freeEnergyZ - $freeEnergyD ) - ( $freeEnergyX + 2*$G_Ethene - $freeEnergyD - 2*$G_Propene ) - $DDG_reference_HGII ) / $kT ) ) " | bc -l )

> <WEIGHT_DEFINITION_1>
w1=$( echo "1 / ( 1 + e( $hartree_to_kcalmol * ( ( ( $freeEnergyX + 2*$G_Ethene - $freeEnergyD - 2*$G_Propene ) ) - ( $DG_referenceProductionBarrier + $magnitude4 ) ) / $kT ) )" | bc -l )

> <WEIGHT_DEFINITION_2>
w1=$( echo "1 / ( 1 + e( $hartree_to_kcalmol * ( ( ( $freeEnergyX + 2*$G_Ethene - $freeEnergyD - 2*$G_Propene ) ) - ( $DG_referenceProductionBarrier + $magnitude4 ) ) / $kT ) )" | bc -l )

> <WEIGHT_DEFINITION_3>
w1=$( echo "1 / ( 1 + e( $hartree_to_kcalmol * ( ( ( $freeEnergyX + 2*$G_Ethene - $freeEnergyD - 2*$G_Propene ) ) - ( $DG_referenceProductionBarrier + $magnitude4 ) ) / $kT ) )" | bc -l )

> <WEIGHT_DEFINITION_4>
w1=$( echo "1 / ( 1 + e( $hartree_to_kcalmol * ( ( ( $freeEnergyX + 2*$G_Ethene - $freeEnergyD - 2*$G_Propene ) ) - ( $DG_referenceProductionBarrier + $magnitude4 ) ) / $kT ) )" | bc -l )

> <CALCULATION_OF_OVERALL_FITNESS>
fitness=$( echo "( $desc1 + $desc2 + $desc3 ) * ( $w1 * $w2 * $w3 * $w4 )" | bc -l )

> <freeEnergyA>
-2563.16351955

> <freeEnergyF>
-2563.1392879

> <freeEnergyE>
-2563.16351955

> <freeEnergyC>
-2217.90052856

> <freeEnergyL>
-1085.3042662

> <freeEnergyX>
-2296.43269792

> <freeEnergyZ>
-2217.89029269

> <freeEnergyD>
-2217.92427011

> <G_Propene>
-117.738020895

> <G_Ethene>
-78.4716324751

> <G_HoveydaProd>
-502.204109499

> <G_SIMes>
-924.27249048

> <G_HG_RuCl2_SIMes>
-2402.13728523

> <DG_referenceProductionBarrier>
0.01468968

> <DG_referencePrecursorStabilityHII>
-0.0052201621

> <DG_referencePrecursorStabilityHI>
0.0117775312

> <DDG_referencePrecursorStability>
.0169976933

> <DG_referenceSynt>
0.0226072217

> <hartree_to_kcalmol>
627.49467516

> <boltzmann_constant>
0.0000000000000000000000138066

> <avogadro_number>
602214000000000000000000

> <jmol_to_kcalmol>
0.00023901

> <temp>
313.15

> <kT>
.6223089948281258706000000000

> <magnitude1>
1.43290809

> <magnitude2>
2.86581618

> <magnitude3>
4.29872427

> <magnitude4>
5.73163236

> <DFT_IDENTIFIER>
1723547561613

> <DFT_MACHINE>
158.39.114.73

> <XTB_IDENTIFIER>
1723547174099

> <XTB_MACHINE>
158.39.114.73

> <DESCRIPTOR_1>
.00000302705134188951

> <DESCRIPTOR_2>
6.041763580862727432

> <DESCRIPTOR_3>
0.0000000001

> <WEIGHT_1>
.99918812337802660549

> <WEIGHT_2>
.99999394071353427446

> <WEIGHT_3>
.99999999663754950134

> <WEIGHT_4>
.99999999755308490983

> <FITNESS>
6.03682482480666816007

$$$$
