
  CDK     08132409283D

 43 47  0  0  0  0  0  0  0  0999 V2000
    0.3613    0.8584   -3.0652 H   0  0  0  0  0  0  0  0  0  0  0  0
    1.5670    0.6277   -3.1506 C   0  0  0  0  0  0  0  0  0  0  0  0
    1.4779    0.6944   -4.2574 H   0  0  0  0  0  0  0  0  0  0  0  0
    1.6466   -0.6652   -2.4032 C   0  0  0  0  0  0  0  0  0  0  0  0
    2.6015   -0.9122   -1.9108 H   0  0  0  0  0  0  0  0  0  0  0  0
    1.1205   -1.5199   -2.8637 H   0  0  0  0  0  0  0  0  0  0  0  0
    0.4838    0.6388   -1.3093 Ru  0  0  0  0  0  0  0  0  0  0  0  0
    2.0346    1.7443   -2.3190 C   0  0  0  0  0  0  0  0  0  0  0  0
    2.9752    1.6444   -1.7633 H   0  0  0  0  0  0  0  0  0  0  0  0
    1.7624    2.7661   -2.6361 H   0  0  0  0  0  0  0  0  0  0  0  0
    2.2490    0.6863    0.3899 Cl  0  0  0  0  0  0  0  0  0  0  0  0
   -1.6118    0.0851   -2.3256 Cl  0  0  0  0  0  0  0  0  0  0  0  0
   -0.3908    0.0060    0.4176 C   0  0  0  0  0  0  0  0  0  0  0  0
   -0.9304   -1.2193    0.6311 N   0  0  0  0  0  0  0  0  0  0  0  0
   -1.7776   -1.2597    1.8426 C   0  0  0  0  0  0  0  0  0  0  0  0
   -1.2757   -0.0333    2.6063 C   0  0  0  0  0  0  0  0  0  0  0  0
   -0.6740    0.7716    1.5174 N   0  0  0  0  0  0  0  0  0  0  0  0
   -2.8447   -1.1826    1.5503 H   0  0  0  0  0  0  0  0  0  0  0  0
   -1.6172   -2.2048    2.3929 H   0  0  0  0  0  0  0  0  0  0  0  0
   -0.5008   -0.2950    3.3522 H   0  0  0  0  0  0  0  0  0  0  0  0
   -2.0836    0.5332    3.1039 H   0  0  0  0  0  0  0  0  0  0  0  0
   -0.2401    2.0988    1.7004 C   0  0  0  0  0  0  0  0  0  0  0  0
    0.5994    4.7944    2.0380 C   0  0  0  0  0  0  0  0  0  0  0  0
    0.3222    2.5608    2.9081 C   0  0  0  0  0  0  0  0  0  0  0  0
   -0.3534    3.0592    0.6765 C   0  0  0  0  0  0  0  0  0  0  0  0
    0.0608    4.3804    0.8116 C   0  0  0  0  0  0  0  0  0  0  0  0
    0.7244    3.8835    3.0947 C   0  0  0  0  0  0  0  0  0  0  0  0
   -0.0525    5.0622   -0.0404 H   0  0  0  0  0  0  0  0  0  0  0  0
    1.1566    4.1671    4.0627 H   0  0  0  0  0  0  0  0  0  0  0  0
   -0.8511   -2.3205   -0.2533 C   0  0  0  0  0  0  0  0  0  0  0  0
   -0.7186   -4.5596   -1.9628 C   0  0  0  0  0  0  0  0  0  0  0  0
    0.3689   -2.9761   -0.5034 C   0  0  0  0  0  0  0  0  0  0  0  0
   -2.0039   -2.8473   -0.8642 C   0  0  0  0  0  0  0  0  0  0  0  0
   -1.9585   -3.9544   -1.7112 C   0  0  0  0  0  0  0  0  0  0  0  0
    0.4523   -4.0748   -1.3634 C   0  0  0  0  0  0  0  0  0  0  0  0
   -2.8883   -4.3115   -2.1713 H   0  0  0  0  0  0  0  0  0  0  0  0
    1.4318   -4.5390   -1.5344 H   0  0  0  0  0  0  0  0  0  0  0  0
    0.9292    5.8335    2.1687 H   0  0  0  0  0  0  0  0  0  0  0  0
   -0.6649   -5.4261   -2.6361 H   0  0  0  0  0  0  0  0  0  0  0  0
   -0.8924    2.6595   -0.5133 F   0  0  0  0  0  0  0  0  0  0  0  0
    0.4888    1.6830    3.9300 F   0  0  0  0  0  0  0  0  0  0  0  0
   -3.1903   -2.2507   -0.6071 F   0  0  0  0  0  0  0  0  0  0  0  0
    1.4809   -2.5243    0.1034 F   0  0  0  0  0  0  0  0  0  0  0  0
  1  2  1  0  0  0  0
  1  7  1  0  0  0  0
  2  3  1  0  0  0  0
  2  4  1  0  0  0  0
  4  5  1  0  0  0  0
  6  4  1  0  0  0  0
  7  8  1  0  0  0  0
  7  4  1  0  0  0  0
  8  2  1  0  0  0  0
  8  9  1  0  0  0  0
 10  8  1  0  0  0  0
  7 11  1  0  0  0  0
  7 12  1  0  0  0  0
 13 14  1  0  0  0  0
 13 17  1  0  0  0  0
 14 15  1  0  0  0  0
 15 18  1  0  0  0  0
 15 19  1  0  0  0  0
 15 16  1  0  0  0  0
 16 20  1  0  0  0  0
 16 21  1  0  0  0  0
 16 17  1  0  0  0  0
 22 25  2  0  0  0  0
 25 26  1  0  0  0  0
 23 26  2  0  0  0  0
 23 27  1  0  0  0  0
 24 27  2  0  0  0  0
 22 24  1  0  0  0  0
 26 28  1  0  0  0  0
 27 29  1  0  0  0  0
 17 22  1  0  0  0  0
 30 33  2  0  0  0  0
 33 34  1  0  0  0  0
 31 34  2  0  0  0  0
 31 35  1  0  0  0  0
 32 35  2  0  0  0  0
 30 32  1  0  0  0  0
 34 36  1  0  0  0  0
 35 37  1  0  0  0  0
 14 30  1  0  0  0  0
 23 38  1  0  0  0  0
 31 39  1  0  0  0  0
 25 40  1  0  0  0  0
 24 41  1  0  0  0  0
 33 42  1  0  0  0  0
 32 43  1  0  0  0  0
  7 13  1  0  0  0  0
M  END
>  <DFT-ENERGY>
-2217.89029221

$$$$
