
  CDK     08142402073D

 64 67  0  0  0  0  0  0  0  0999 V2000
    0.3491   -2.7741    1.8386 H   0  0  0  0  0  0  0  0  0  0  0  0
    1.3813   -2.6930    2.5035 C   0  0  0  0  0  0  0  0  0  0  0  0
    1.6192   -3.7538    2.2787 H   0  0  0  0  0  0  0  0  0  0  0  0
    1.9638   -1.5572    1.7547 C   0  0  0  0  0  0  0  0  0  0  0  0
    2.6725   -0.8913    2.2660 H   0  0  0  0  0  0  0  0  0  0  0  0
    2.1532   -1.7236    0.6796 H   0  0  0  0  0  0  0  0  0  0  0  0
   -0.0427   -1.1020    2.2821 Ru  0  0  0  0  0  0  0  0  0  0  0  0
    0.7828   -2.2547    3.7970 C   0  0  0  0  0  0  0  0  0  0  0  0
    1.3957   -1.6540    4.4870 H   0  0  0  0  0  0  0  0  0  0  0  0
    0.0933   -2.9739    4.2719 H   0  0  0  0  0  0  0  0  0  0  0  0
    1.1416    0.7400    3.3713 Cl  0  0  0  0  0  0  0  0  0  0  0  0
   -1.8314   -2.6480    1.8939 Cl  0  0  0  0  0  0  0  0  0  0  0  0
   -1.3245    0.4905    2.3869 C   0  0  0  0  0  0  0  0  0  0  0  0
   -2.3390    0.8167    3.4974 C   0  0  0  0  0  0  0  0  0  0  0  0
   -1.3910    1.4218    1.4379 N   0  0  0  0  0  0  0  0  0  0  0  0
   -2.1453    2.6813    1.8871 C   0  0  0  0  0  0  0  0  0  0  0  0
   -3.0953    2.0430    2.9101 C   0  0  0  0  0  0  0  0  0  0  0  0
   -4.0106    1.6950    2.3897 H   0  0  0  0  0  0  0  0  0  0  0  0
   -3.3996    2.7616    3.6943 H   0  0  0  0  0  0  0  0  0  0  0  0
   -3.3208   -0.3577    3.6876 C   0  0  0  0  0  0  0  0  0  0  0  0
   -3.7882   -0.6699    2.7348 H   0  0  0  0  0  0  0  0  0  0  0  0
   -4.1211   -0.0287    4.3824 H   0  0  0  0  0  0  0  0  0  0  0  0
   -2.8149   -1.2426    4.1146 H   0  0  0  0  0  0  0  0  0  0  0  0
   -1.6895    1.0961    4.8665 C   0  0  0  0  0  0  0  0  0  0  0  0
   -2.4937    1.2689    5.6110 H   0  0  0  0  0  0  0  0  0  0  0  0
   -1.0192    1.9724    4.8547 H   0  0  0  0  0  0  0  0  0  0  0  0
   -1.0873    0.2254    5.1862 H   0  0  0  0  0  0  0  0  0  0  0  0
   -0.9100    1.2588    0.0742 C   0  0  0  0  0  0  0  0  0  0  0  0
   -0.2663    1.2106   -2.6621 C   0  0  0  0  0  0  0  0  0  0  0  0
   -1.7296    0.5084   -0.8246 C   0  0  0  0  0  0  0  0  0  0  0  0
    0.2611    1.9232   -0.3812 C   0  0  0  0  0  0  0  0  0  0  0  0
    0.5585    1.8789   -1.7563 C   0  0  0  0  0  0  0  0  0  0  0  0
   -1.3857    0.5227   -2.1900 C   0  0  0  0  0  0  0  0  0  0  0  0
    1.4635    2.3874   -2.1178 H   0  0  0  0  0  0  0  0  0  0  0  0
   -2.0148   -0.0340   -2.8977 H   0  0  0  0  0  0  0  0  0  0  0  0
   -0.0261    1.2074   -3.7353 H   0  0  0  0  0  0  0  0  0  0  0  0
   -2.9320   -0.3418   -0.4163 C   0  0  0  0  0  0  0  0  0  0  0  0
   -2.8854   -0.5095    0.6758 H   0  0  0  0  0  0  0  0  0  0  0  0
   -2.8660   -1.7323   -1.0773 C   0  0  0  0  0  0  0  0  0  0  0  0
   -3.6131   -2.4020   -0.6091 H   0  0  0  0  0  0  0  0  0  0  0  0
   -1.8727   -2.1979   -0.9415 H   0  0  0  0  0  0  0  0  0  0  0  0
   -3.0931   -1.6800   -2.1624 H   0  0  0  0  0  0  0  0  0  0  0  0
   -4.2842    0.3087   -0.7593 C   0  0  0  0  0  0  0  0  0  0  0  0
   -4.4927    1.2134   -0.1574 H   0  0  0  0  0  0  0  0  0  0  0  0
   -5.1066   -0.4097   -0.5662 H   0  0  0  0  0  0  0  0  0  0  0  0
   -4.3308    0.5961   -1.8304 H   0  0  0  0  0  0  0  0  0  0  0  0
    1.2431    2.6482    0.5260 C   0  0  0  0  0  0  0  0  0  0  0  0
    0.8823    2.5559    1.5651 H   0  0  0  0  0  0  0  0  0  0  0  0
    2.6203    1.9631    0.4828 C   0  0  0  0  0  0  0  0  0  0  0  0
    3.3037    2.4355    1.2168 H   0  0  0  0  0  0  0  0  0  0  0  0
    3.0855    2.0455   -0.5215 H   0  0  0  0  0  0  0  0  0  0  0  0
    2.5313    0.8932    0.7442 H   0  0  0  0  0  0  0  0  0  0  0  0
    1.3765    4.1348    0.1528 C   0  0  0  0  0  0  0  0  0  0  0  0
    2.0084    4.6643    0.8945 H   0  0  0  0  0  0  0  0  0  0  0  0
    0.3951    4.6488    0.1074 H   0  0  0  0  0  0  0  0  0  0  0  0
    1.8546    4.2608   -0.8407 H   0  0  0  0  0  0  0  0  0  0  0  0
   -2.8357    3.3869    0.7259 C   0  0  0  0  0  0  0  0  0  0  0  0
   -3.5685    2.7408    0.2127 H   0  0  0  0  0  0  0  0  0  0  0  0
   -2.0999    3.7359   -0.0247 H   0  0  0  0  0  0  0  0  0  0  0  0
   -3.3705    4.2751    1.1167 H   0  0  0  0  0  0  0  0  0  0  0  0
   -1.1753    3.6586    2.5765 C   0  0  0  0  0  0  0  0  0  0  0  0
   -1.7685    4.3906    3.1598 H   0  0  0  0  0  0  0  0  0  0  0  0
   -0.5748    4.2248    1.8443 H   0  0  0  0  0  0  0  0  0  0  0  0
   -0.4845    3.1335    3.2617 H   0  0  0  0  0  0  0  0  0  0  0  0
  1  2  1  0  0  0  0
  1  7  1  0  0  0  0
  2  3  1  0  0  0  0
  2  4  1  0  0  0  0
  4  5  1  0  0  0  0
  4  6  1  0  0  0  0
  7  8  1  0  0  0  0
  4  7  1  0  0  0  0
  2  8  1  0  0  0  0
  8  9  1  0  0  0  0
  8 10  1  0  0  0  0
  7 11  1  0  0  0  0
  7 12  1  0  0  0  0
 13 14  1  0  0  0  0
 13 15  1  0  0  0  0
 14 17  1  0  0  0  0
 14 20  1  0  0  0  0
 14 24  1  0  0  0  0
 15 16  1  0  0  0  0
 16 17  1  0  0  0  0
 17 18  1  0  0  0  0
 17 19  1  0  0  0  0
 20 21  1  0  0  0  0
 20 22  1  0  0  0  0
 20 23  1  0  0  0  0
 24 25  1  0  0  0  0
 24 26  1  0  0  0  0
 24 27  1  0  0  0  0
 28 31  2  0  0  0  0
 28 30  1  0  0  0  0
 29 32  2  0  0  0  0
 29 33  1  0  0  0  0
 29 36  1  0  0  0  0
 30 33  2  0  0  0  0
 31 32  1  0  0  0  0
 32 34  1  0  0  0  0
 33 35  1  0  0  0  0
 15 28  1  0  0  0  0
 37 38  1  0  0  0  0
 37 39  1  0  0  0  0
 37 43  1  0  0  0  0
 39 40  1  0  0  0  0
 39 41  1  0  0  0  0
 39 42  1  0  0  0  0
 43 44  1  0  0  0  0
 43 45  1  0  0  0  0
 43 46  1  0  0  0  0
 30 37  1  0  0  0  0
 47 48  1  0  0  0  0
 47 49  1  0  0  0  0
 47 53  1  0  0  0  0
 49 50  1  0  0  0  0
 49 51  1  0  0  0  0
 49 52  1  0  0  0  0
 53 54  1  0  0  0  0
 53 55  1  0  0  0  0
 53 56  1  0  0  0  0
 31 47  1  0  0  0  0
 57 58  1  0  0  0  0
 57 59  1  0  0  0  0
 57 60  1  0  0  0  0
 16 57  1  0  0  0  0
 61 62  1  0  0  0  0
 61 63  1  0  0  0  0
 61 64  1  0  0  0  0
 16 61  1  0  0  0  0
  7 13  1  0  0  0  0
M  END
>  <DFT-ENERGY>
-1967.04663273

$$$$
