
  CDK     08142404393D

 64 66  0  0  0  0  0  0  0  0999 V2000
    1.6689    1.6256    0.9634 Ru  0  0  0  0  0  0  0  0  0  0  0  0
    3.3673    1.3871    0.0029 C   0  0  0  0  0  0  0  0  0  0  0  0
    3.3740    1.7502   -1.0401 H   0  0  0  0  0  0  0  0  0  0  0  0
    3.7685    2.5059    1.0508 C   0  0  0  0  0  0  0  0  0  0  0  0
    4.0669    3.3936    0.4640 H   0  0  0  0  0  0  0  0  0  0  0  0
    2.6346    2.9738    2.0374 C   0  0  0  0  0  0  0  0  0  0  0  0
    2.8176    2.6777    3.0849 H   0  0  0  0  0  0  0  0  0  0  0  0
    2.3131    4.0166    1.8698 H   0  0  0  0  0  0  0  0  0  0  0  0
    4.5743    2.0760    1.6728 H   0  0  0  0  0  0  0  0  0  0  0  0
    3.8826    0.4273    0.1827 H   0  0  0  0  0  0  0  0  0  0  0  0
    1.0978    3.4123   -0.5077 Cl  0  0  0  0  0  0  0  0  0  0  0  0
    2.3779    0.0175    2.5988 Cl  0  0  0  0  0  0  0  0  0  0  0  0
   -0.1100    0.8655    1.0247 C   0  0  0  0  0  0  0  0  0  0  0  0
   -1.1015    1.4835    2.0227 C   0  0  0  0  0  0  0  0  0  0  0  0
   -0.6669   -0.1743    0.4001 N   0  0  0  0  0  0  0  0  0  0  0  0
   -2.0517   -0.5428    0.9433 C   0  0  0  0  0  0  0  0  0  0  0  0
   -2.1055    0.3240    2.2148 C   0  0  0  0  0  0  0  0  0  0  0  0
   -1.7871   -0.2858    3.0832 H   0  0  0  0  0  0  0  0  0  0  0  0
   -3.1285    0.6962    2.4143 H   0  0  0  0  0  0  0  0  0  0  0  0
   -0.4712    1.9003    3.3614 C   0  0  0  0  0  0  0  0  0  0  0  0
    0.1855    2.7831    3.2367 H   0  0  0  0  0  0  0  0  0  0  0  0
    0.1347    1.0837    3.7964 H   0  0  0  0  0  0  0  0  0  0  0  0
   -1.2788    2.1811    4.0679 H   0  0  0  0  0  0  0  0  0  0  0  0
   -1.7577    2.7201    1.3673 C   0  0  0  0  0  0  0  0  0  0  0  0
   -1.0022    3.4989    1.1519 H   0  0  0  0  0  0  0  0  0  0  0  0
   -2.5215    3.1275    2.0608 H   0  0  0  0  0  0  0  0  0  0  0  0
   -2.2542    2.4777    0.4090 H   0  0  0  0  0  0  0  0  0  0  0  0
   -0.1571   -0.8912   -0.7618 C   0  0  0  0  0  0  0  0  0  0  0  0
    0.3446   -2.5082   -3.0070 C   0  0  0  0  0  0  0  0  0  0  0  0
    0.4959   -2.1460   -0.5895 C   0  0  0  0  0  0  0  0  0  0  0  0
   -0.4497   -0.3906   -2.0647 C   0  0  0  0  0  0  0  0  0  0  0  0
   -0.2030   -1.2342   -3.1653 C   0  0  0  0  0  0  0  0  0  0  0  0
    0.7217   -2.9361   -1.7328 C   0  0  0  0  0  0  0  0  0  0  0  0
   -0.4388   -0.8673   -4.1742 H   0  0  0  0  0  0  0  0  0  0  0  0
    1.2168   -3.9099   -1.6120 H   0  0  0  0  0  0  0  0  0  0  0  0
    0.5109   -3.1536   -3.8817 H   0  0  0  0  0  0  0  0  0  0  0  0
    1.0826   -2.6395    0.7282 C   0  0  0  0  0  0  0  0  0  0  0  0
    0.8063   -1.9276    1.5301 H   0  0  0  0  0  0  0  0  0  0  0  0
    2.6208   -2.6173    0.6175 C   0  0  0  0  0  0  0  0  0  0  0  0
    3.0786   -2.8547    1.5976 H   0  0  0  0  0  0  0  0  0  0  0  0
    2.9839   -1.6182    0.3174 H   0  0  0  0  0  0  0  0  0  0  0  0
    2.9726   -3.3619   -0.1268 H   0  0  0  0  0  0  0  0  0  0  0  0
    0.6283   -4.0572    1.1173 C   0  0  0  0  0  0  0  0  0  0  0  0
   -0.4716   -4.1593    1.1743 H   0  0  0  0  0  0  0  0  0  0  0  0
    1.0497   -4.3271    2.1067 H   0  0  0  0  0  0  0  0  0  0  0  0
    0.9951   -4.8121    0.3917 H   0  0  0  0  0  0  0  0  0  0  0  0
   -0.9046    1.0333   -2.3709 C   0  0  0  0  0  0  0  0  0  0  0  0
   -1.0088    1.5885   -1.4185 H   0  0  0  0  0  0  0  0  0  0  0  0
    0.1962    1.7388   -3.1893 C   0  0  0  0  0  0  0  0  0  0  0  0
   -0.0484    2.8119   -3.3110 H   0  0  0  0  0  0  0  0  0  0  0  0
    0.2889    1.2844   -4.1976 H   0  0  0  0  0  0  0  0  0  0  0  0
    1.1749    1.6825   -2.6800 H   0  0  0  0  0  0  0  0  0  0  0  0
   -2.2295    1.1044   -3.1506 C   0  0  0  0  0  0  0  0  0  0  0  0
   -2.5064    2.1638   -3.3246 H   0  0  0  0  0  0  0  0  0  0  0  0
   -3.0693    0.6135   -2.6256 H   0  0  0  0  0  0  0  0  0  0  0  0
   -2.1327    0.6246   -4.1464 H   0  0  0  0  0  0  0  0  0  0  0  0
   -2.1317   -2.0297    1.2847 C   0  0  0  0  0  0  0  0  0  0  0  0
   -1.3679   -2.3140    2.0301 H   0  0  0  0  0  0  0  0  0  0  0  0
   -2.0136   -2.6638    0.3853 H   0  0  0  0  0  0  0  0  0  0  0  0
   -3.1304   -2.2362    1.7188 H   0  0  0  0  0  0  0  0  0  0  0  0
   -3.1431   -0.2093   -0.0777 C   0  0  0  0  0  0  0  0  0  0  0  0
   -4.1309   -0.4643    0.3544 H   0  0  0  0  0  0  0  0  0  0  0  0
   -3.0111   -0.8089   -0.9985 H   0  0  0  0  0  0  0  0  0  0  0  0
   -3.1531    0.8600   -0.3518 H   0  0  0  0  0  0  0  0  0  0  0  0
  2  4  1  0  0  0  0
  2  1  1  0  0  0  0
  2  3  1  0  0  0  0
  4  6  1  0  0  0  0
  4  5  1  0  0  0  0
  6  1  1  0  0  0  0
  6  8  1  0  0  0  0
  7  6  1  0  0  0  0
  9  4  1  0  0  0  0
 10  2  1  0  0  0  0
  1 11  1  0  0  0  0
  1 12  1  0  0  0  0
 13 14  1  0  0  0  0
 13 15  1  0  0  0  0
 14 17  1  0  0  0  0
 14 20  1  0  0  0  0
 14 24  1  0  0  0  0
 15 16  1  0  0  0  0
 16 17  1  0  0  0  0
 17 18  1  0  0  0  0
 17 19  1  0  0  0  0
 20 21  1  0  0  0  0
 20 22  1  0  0  0  0
 20 23  1  0  0  0  0
 24 25  1  0  0  0  0
 24 26  1  0  0  0  0
 24 27  1  0  0  0  0
 28 31  2  0  0  0  0
 28 30  1  0  0  0  0
 29 32  2  0  0  0  0
 29 33  1  0  0  0  0
 29 36  1  0  0  0  0
 30 33  2  0  0  0  0
 31 32  1  0  0  0  0
 32 34  1  0  0  0  0
 33 35  1  0  0  0  0
 15 28  1  0  0  0  0
 37 38  1  0  0  0  0
 37 39  1  0  0  0  0
 37 43  1  0  0  0  0
 39 40  1  0  0  0  0
 39 41  1  0  0  0  0
 39 42  1  0  0  0  0
 43 44  1  0  0  0  0
 43 45  1  0  0  0  0
 43 46  1  0  0  0  0
 30 37  1  0  0  0  0
 47 48  1  0  0  0  0
 47 49  1  0  0  0  0
 47 53  1  0  0  0  0
 49 50  1  0  0  0  0
 49 51  1  0  0  0  0
 49 52  1  0  0  0  0
 53 54  1  0  0  0  0
 53 55  1  0  0  0  0
 53 56  1  0  0  0  0
 31 47  1  0  0  0  0
 57 58  1  0  0  0  0
 57 59  1  0  0  0  0
 57 60  1  0  0  0  0
 16 57  1  0  0  0  0
 61 62  1  0  0  0  0
 61 63  1  0  0  0  0
 61 64  1  0  0  0  0
 16 61  1  0  0  0  0
  1 13  1  0  0  0  0
M  END
>  <DFT-ENERGY>
-1967.09670092

$$$$
