DIPP5CAAC-3_A1
  CDK     08132409443D

 78 81  0  0  0  0  0  0  0  0999 V2000
    0.4356    0.7617   -1.4407 Ru  0  0  0  0  0  0  0  0  0  0  0  0
    2.2134    0.7617   -2.8299 O   0  0  0  0  0  0  0  0  0  0  0  0
    1.6458   -0.1716   -0.4366 C   0  0  0  0  0  0  0  0  0  0  0  0
    1.4130   -0.4645    0.5861 H   0  0  0  0  0  0  0  0  0  0  0  0
    2.4489    1.5369   -4.0557 C   0  0  0  0  0  0  0  0  0  0  0  0
    2.8694    0.8416   -4.8129 H   0  0  0  0  0  0  0  0  0  0  0  0
    1.0244    1.9626   -4.3848 C   0  0  0  0  0  0  0  0  0  0  0  0
    0.9562    2.4427   -5.3644 H   0  0  0  0  0  0  0  0  0  0  0  0
    0.6337    2.6691   -3.6270 H   0  0  0  0  0  0  0  0  0  0  0  0
    0.3484    1.0822   -4.3825 H   0  0  0  0  0  0  0  0  0  0  0  0
    3.3747    2.6928   -3.7219 C   0  0  0  0  0  0  0  0  0  0  0  0
    3.0487    3.1796   -2.7819 H   0  0  0  0  0  0  0  0  0  0  0  0
    3.3674    3.4602   -4.5025 H   0  0  0  0  0  0  0  0  0  0  0  0
    4.4103    2.3729   -3.5661 H   0  0  0  0  0  0  0  0  0  0  0  0
    3.2056   -0.0367   -2.3249 C   0  0  0  0  0  0  0  0  0  0  0  0
    4.3747   -0.3854   -2.9779 C   0  0  0  0  0  0  0  0  0  0  0  0
    4.5933   -0.0348   -3.9840 H   0  0  0  0  0  0  0  0  0  0  0  0
    5.2759   -1.2165   -2.3204 C   0  0  0  0  0  0  0  0  0  0  0  0
    6.1985   -1.5039   -2.8294 H   0  0  0  0  0  0  0  0  0  0  0  0
    5.0259   -1.6881   -1.0351 C   0  0  0  0  0  0  0  0  0  0  0  0
    5.7509   -2.3327   -0.5410 H   0  0  0  0  0  0  0  0  0  0  0  0
    3.8562   -1.3278   -0.3935 C   0  0  0  0  0  0  0  0  0  0  0  0
    3.6630   -1.6824    0.6178 H   0  0  0  0  0  0  0  0  0  0  0  0
    2.9207   -0.5124   -1.0329 C   0  0  0  0  0  0  0  0  0  0  0  0
    1.0250    2.9161   -0.8900 Cl  0  0  0  0  0  0  0  0  0  0  0  0
   -0.4128   -0.9966   -2.8416 Cl  0  0  0  0  0  0  0  0  0  0  0  0
   -1.1533    0.6670   -0.3289 C   0  0  0  0  0  0  0  0  0  0  0  0
   -2.3824    1.4516   -0.8701 C   0  0  0  0  0  0  0  0  0  0  0  0
   -1.5473    0.0087    0.7931 N   0  0  0  0  0  0  0  0  0  0  0  0
   -3.0338    0.1498    1.1519 C   0  0  0  0  0  0  0  0  0  0  0  0
   -3.4907    1.2898    0.2102 C   0  0  0  0  0  0  0  0  0  0  0  0
   -3.6318    2.2317    0.7681 H   0  0  0  0  0  0  0  0  0  0  0  0
   -4.4693    1.0724   -0.2463 H   0  0  0  0  0  0  0  0  0  0  0  0
   -2.0356    2.9304   -1.0613 C   0  0  0  0  0  0  0  0  0  0  0  0
   -1.3656    3.0839   -1.9245 H   0  0  0  0  0  0  0  0  0  0  0  0
   -1.5238    3.3508   -0.1834 H   0  0  0  0  0  0  0  0  0  0  0  0
   -2.9307    3.5327   -1.2482 H   0  0  0  0  0  0  0  0  0  0  0  0
   -2.8244    0.8424   -2.2057 C   0  0  0  0  0  0  0  0  0  0  0  0
   -2.0831    1.0305   -3.0018 H   0  0  0  0  0  0  0  0  0  0  0  0
   -3.7734    1.2658   -2.5487 H   0  0  0  0  0  0  0  0  0  0  0  0
   -2.9436   -0.2484   -2.1426 H   0  0  0  0  0  0  0  0  0  0  0  0
   -0.7131   -0.8034    1.6668 C   0  0  0  0  0  0  0  0  0  0  0  0
    0.7097   -2.3942    3.4824 C   0  0  0  0  0  0  0  0  0  0  0  0
   -0.0991   -0.2030    2.7964 C   0  0  0  0  0  0  0  0  0  0  0  0
   -0.5483   -2.1849    1.4076 C   0  0  0  0  0  0  0  0  0  0  0  0
    0.1510   -2.9662    2.3420 C   0  0  0  0  0  0  0  0  0  0  0  0
    0.6031   -1.0191    3.6935 C   0  0  0  0  0  0  0  0  0  0  0  0
    0.2660   -4.0353    2.1618 H   0  0  0  0  0  0  0  0  0  0  0  0
    1.0803   -0.5719    4.5659 H   0  0  0  0  0  0  0  0  0  0  0  0
    1.2430   -3.0157    4.2004 H   0  0  0  0  0  0  0  0  0  0  0  0
   -0.1120    1.2994    3.0311 C   0  0  0  0  0  0  0  0  0  0  0  0
   -0.9467    1.7658    2.4410 H   0  0  0  0  0  0  0  0  0  0  0  0
    1.2064    1.8919    2.5219 C   0  0  0  0  0  0  0  0  0  0  0  0
    1.2353    2.9793    2.6550 H   0  0  0  0  0  0  0  0  0  0  0  0
    1.3308    1.7090    1.4391 H   0  0  0  0  0  0  0  0  0  0  0  0
    2.0782    1.4706    3.0307 H   0  0  0  0  0  0  0  0  0  0  0  0
   -0.3462    1.6513    4.5067 C   0  0  0  0  0  0  0  0  0  0  0  0
   -1.2201    1.1318    4.9129 H   0  0  0  0  0  0  0  0  0  0  0  0
   -0.5082    2.7284    4.6277 H   0  0  0  0  0  0  0  0  0  0  0  0
    0.5141    1.3875    5.1328 H   0  0  0  0  0  0  0  0  0  0  0  0
   -1.0403   -2.8551    0.1349 C   0  0  0  0  0  0  0  0  0  0  0  0
   -1.5798   -2.1058   -0.5072 H   0  0  0  0  0  0  0  0  0  0  0  0
    0.1548   -3.3533   -0.6874 C   0  0  0  0  0  0  0  0  0  0  0  0
   -0.1793   -3.7365   -1.6610 H   0  0  0  0  0  0  0  0  0  0  0  0
    0.7214   -4.1402   -0.1860 H   0  0  0  0  0  0  0  0  0  0  0  0
    0.8441   -2.5239   -0.9191 H   0  0  0  0  0  0  0  0  0  0  0  0
   -2.0067   -4.0017    0.4617 C   0  0  0  0  0  0  0  0  0  0  0  0
   -2.4488   -4.4073   -0.4558 H   0  0  0  0  0  0  0  0  0  0  0  0
   -2.8253   -3.6611    1.1089 H   0  0  0  0  0  0  0  0  0  0  0  0
   -1.5042   -4.8306    0.9710 H   0  0  0  0  0  0  0  0  0  0  0  0
   -3.2278    0.5177    2.6234 C   0  0  0  0  0  0  0  0  0  0  0  0
   -2.7066    1.4497    2.8857 H   0  0  0  0  0  0  0  0  0  0  0  0
   -2.8483   -0.2638    3.2949 H   0  0  0  0  0  0  0  0  0  0  0  0
   -4.2896    0.6574    2.8554 H   0  0  0  0  0  0  0  0  0  0  0  0
   -3.7722   -1.1558    0.8406 C   0  0  0  0  0  0  0  0  0  0  0  0
   -4.8419   -1.0669    1.0576 H   0  0  0  0  0  0  0  0  0  0  0  0
   -3.3877   -1.9987    1.4357 H   0  0  0  0  0  0  0  0  0  0  0  0
   -3.6730   -1.4388   -0.2161 H   0  0  0  0  0  0  0  0  0  0  0  0
  2  1  1  0  0  0  0
  3  1  2  0  0  0  0
  4  3  1  0  0  0  0
  5  2  1  0  0  0  0
  6  5  1  0  0  0  0
  7  5  1  0  0  0  0
  8  7  1  0  0  0  0
  9  7  1  0  0  0  0
 10  7  1  0  0  0  0
 11  5  1  0  0  0  0
 12 11  1  0  0  0  0
 13 11  1  0  0  0  0
 14 11  1  0  0  0  0
 15  2  1  0  0  0  0
 15 24  1  0  0  0  0
 16 15  2  0  0  0  0
 17 16  1  0  0  0  0
 18 16  1  0  0  0  0
 19 18  1  0  0  0  0
 20 18  2  0  0  0  0
 21 20  1  0  0  0  0
 22 20  1  0  0  0  0
 22 24  2  0  0  0  0
 23 22  1  0  0  0  0
 24  3  1  0  0  0  0
  1 25  1  0  0  0  0
  1 26  1  0  0  0  0
 27 28  1  0  0  0  0
 27 29  1  0  0  0  0
 28 31  1  0  0  0  0
 28 34  1  0  0  0  0
 28 38  1  0  0  0  0
 29 30  1  0  0  0  0
 30 31  1  0  0  0  0
 31 32  1  0  0  0  0
 31 33  1  0  0  0  0
 34 35  1  0  0  0  0
 34 36  1  0  0  0  0
 34 37  1  0  0  0  0
 38 39  1  0  0  0  0
 38 40  1  0  0  0  0
 38 41  1  0  0  0  0
  1 27  1  0  0  0  0
 42 45  2  0  0  0  0
 42 44  1  0  0  0  0
 43 46  2  0  0  0  0
 43 47  1  0  0  0  0
 43 50  1  0  0  0  0
 44 47  2  0  0  0  0
 45 46  1  0  0  0  0
 46 48  1  0  0  0  0
 47 49  1  0  0  0  0
 29 42  1  0  0  0  0
 51 52  1  0  0  0  0
 51 53  1  0  0  0  0
 51 57  1  0  0  0  0
 53 54  1  0  0  0  0
 53 55  1  0  0  0  0
 53 56  1  0  0  0  0
 57 58  1  0  0  0  0
 57 59  1  0  0  0  0
 57 60  1  0  0  0  0
 44 51  1  0  0  0  0
 61 62  1  0  0  0  0
 61 63  1  0  0  0  0
 61 67  1  0  0  0  0
 63 64  1  0  0  0  0
 63 65  1  0  0  0  0
 63 66  1  0  0  0  0
 67 68  1  0  0  0  0
 67 69  1  0  0  0  0
 67 70  1  0  0  0  0
 45 61  1  0  0  0  0
 71 72  1  0  0  0  0
 71 73  1  0  0  0  0
 71 74  1  0  0  0  0
 30 71  1  0  0  0  0
 75 76  1  0  0  0  0
 75 77  1  0  0  0  0
 75 78  1  0  0  0  0
 30 75  1  0  0  0  0
M  END
> <FrozenCore-PM6_ENERGY>
-181.048

> <RMSD_CONF_CG-CS>
0.365881

> <RMSD_CONF_GO-CS>
0.000000

> <UID>


> <DESCRIPTOR_DEFINITION_1>
desc1=( echo "1 * ( e( $hartree_to_kcalmol * ( ( $freeEnergyZ - $freeEnergyD ) - ( $freeEnergyX + 2*$G_Ethene - $freeEnergyD - 2*$G_Propene ) - $DDG_reference_HGII ) / $kT ) ) " | bc -l )

> <DESCRIPTOR_DEFINITION_2>
desc1=( echo "1 * ( e( $hartree_to_kcalmol * ( ( $freeEnergyZ - $freeEnergyD ) - ( $freeEnergyX + 2*$G_Ethene - $freeEnergyD - 2*$G_Propene ) - $DDG_reference_HGII ) / $kT ) ) " | bc -l )

> <DESCRIPTOR_DEFINITION_3>
desc1=( echo "1 * ( e( $hartree_to_kcalmol * ( ( $freeEnergyZ - $freeEnergyD ) - ( $freeEnergyX + 2*$G_Ethene - $freeEnergyD - 2*$G_Propene ) - $DDG_reference_HGII ) / $kT ) ) " | bc -l )

> <WEIGHT_DEFINITION_1>
w1=$( echo "1 / ( 1 + e( $hartree_to_kcalmol * ( ( ( $freeEnergyX + 2*$G_Ethene - $freeEnergyD - 2*$G_Propene ) ) - ( $DG_referenceProductionBarrier + $magnitude4 ) ) / $kT ) )" | bc -l )

> <WEIGHT_DEFINITION_2>
w1=$( echo "1 / ( 1 + e( $hartree_to_kcalmol * ( ( ( $freeEnergyX + 2*$G_Ethene - $freeEnergyD - 2*$G_Propene ) ) - ( $DG_referenceProductionBarrier + $magnitude4 ) ) / $kT ) )" | bc -l )

> <WEIGHT_DEFINITION_3>
w1=$( echo "1 / ( 1 + e( $hartree_to_kcalmol * ( ( ( $freeEnergyX + 2*$G_Ethene - $freeEnergyD - 2*$G_Propene ) ) - ( $DG_referenceProductionBarrier + $magnitude4 ) ) / $kT ) )" | bc -l )

> <WEIGHT_DEFINITION_4>
w1=$( echo "1 / ( 1 + e( $hartree_to_kcalmol * ( ( ( $freeEnergyX + 2*$G_Ethene - $freeEnergyD - 2*$G_Propene ) ) - ( $DG_referenceProductionBarrier + $magnitude4 ) ) / $kT ) )" | bc -l )

> <CALCULATION_OF_OVERALL_FITNESS>
fitness=$( echo "( $desc1 + $desc2 + $desc3 ) * ( $w1 * $w2 * $w3 * $w4 )" | bc -l )

> <freeEnergyA>
-2312.34026401

> <freeEnergyF>
-2312.31262403

> <freeEnergyE>
-2312.34026401

> <freeEnergyC>
-1967.07538376

> <freeEnergyL>
-834.463857595

> <freeEnergyX>
-2045.60300585

> <freeEnergyZ>
-1967.04663142

> <freeEnergyD>
-1967.09670084

> <G_Propene>
-117.738020895

> <G_Ethene>
-78.4716324751

> <G_HoveydaProd>
-502.204109499

> <G_SIMes>
-924.27249048

> <G_HG_RuCl2_SIMes>
-2402.13728523

> <DG_referenceProductionBarrier>
0.01468968

> <DG_referencePrecursorStabilityHII>
-0.0052201621

> <DG_referencePrecursorStabilityHI>
0.0117775312

> <DDG_referencePrecursorStability>
.0169976933

> <DG_referenceSynt>
0.0226072217

> <hartree_to_kcalmol>
627.49467516

> <boltzmann_constant>
0.0000000000000000000000138066

> <avogadro_number>
602214000000000000000000

> <jmol_to_kcalmol>
0.00023901

> <temp>
313.15

> <kT>
.6223089948281258706000000000

> <magnitude1>
1.43290809

> <magnitude2>
2.86581618

> <magnitude3>
4.29872427

> <magnitude4>
5.73163236

> <DFT_IDENTIFIER>
1723606384121

> <DFT_MACHINE>
158.39.114.73

> <XTB_IDENTIFIER>
NREC

> <XTB_MACHINE>
NREC

> <DESCRIPTOR_1>
3.96570369566113225589

> <DESCRIPTOR_2>
14.807362197107799432

> <DESCRIPTOR_3>
0.0000000001

> <WEIGHT_1>
.99313793226760232866

> <WEIGHT_2>
.99995928646736167350

> <WEIGHT_3>
.99999999999999989647

> <WEIGHT_4>
.99999999992128357291

> <FITNESS>
18.64348476866952436262

$$$$
