
  CDK     02162402463D

 61 65  0  0  0  0  0  0  0  0999 V2000
    0.5229   -3.3650    0.3872 H   0  0  0  0  0  0  0  0  0  0  0  0
    1.7524   -3.3671    0.3384 C   0  0  0  0  0  0  0  0  0  0  0  0
    1.6834   -4.4622    0.1482 H   0  0  0  0  0  0  0  0  0  0  0  0
    1.9948   -2.3625   -0.7377 C   0  0  0  0  0  0  0  0  0  0  0  0
    2.9508   -1.8136   -0.7064 H   0  0  0  0  0  0  0  0  0  0  0  0
    1.6356   -2.6251   -1.7472 H   0  0  0  0  0  0  0  0  0  0  0  0
    0.5726   -1.6000    0.5570 Ru  0  0  0  0  0  0  0  0  0  0  0  0
    2.0070   -2.8128    1.6673 C   0  0  0  0  0  0  0  0  0  0  0  0
    2.9055   -2.2082    1.8393 H   0  0  0  0  0  0  0  0  0  0  0  0
    1.6183   -3.3674    2.5382 H   0  0  0  0  0  0  0  0  0  0  0  0
    2.1764    0.0768    1.3068 Cl  0  0  0  0  0  0  0  0  0  0  0  0
   -1.3177   -2.6512   -0.5178 Cl  0  0  0  0  0  0  0  0  0  0  0  0
   -0.7085    0.5254   -1.2238 N   0  0  0  0  0  0  0  0  0  0  0  0
   -0.7622    1.1498    0.8876 N   0  0  0  0  0  0  0  0  0  0  0  0
   -0.3192    0.1857    0.0313 C   0  0  0  0  0  0  0  0  0  0  0  0
   -1.3714    1.8454   -1.2616 C   0  0  0  0  0  0  0  0  0  0  0  0
   -2.2745    1.8118   -1.8983 H   0  0  0  0  0  0  0  0  0  0  0  0
   -0.6697    2.5980   -1.6833 H   0  0  0  0  0  0  0  0  0  0  0  0
   -1.6847    2.0888    0.2142 C   0  0  0  0  0  0  0  0  0  0  0  0
   -1.5045    3.1313    0.5300 H   0  0  0  0  0  0  0  0  0  0  0  0
   -2.7309    1.8184    0.4753 H   0  0  0  0  0  0  0  0  0  0  0  0
   -0.2926   -0.0918   -2.4514 C   0  0  0  0  0  0  0  0  0  0  0  0
    1.0456    0.0630   -2.8864 C   0  0  0  0  0  0  0  0  0  0  0  0
    1.4205   -0.5562   -4.0904 C   0  0  0  0  0  0  0  0  0  0  0  0
    2.4621   -0.4508   -4.4325 H   0  0  0  0  0  0  0  0  0  0  0  0
    0.5058   -1.2836   -4.8735 C   0  0  0  0  0  0  0  0  0  0  0  0
   -0.8290   -1.3491   -4.4436 C   0  0  0  0  0  0  0  0  0  0  0  0
   -1.5687   -1.8868   -5.0571 H   0  0  0  0  0  0  0  0  0  0  0  0
   -1.2561   -0.7528   -3.2441 C   0  0  0  0  0  0  0  0  0  0  0  0
    2.0316    0.8995   -2.1178 C   0  0  0  0  0  0  0  0  0  0  0  0
    2.2264    0.5007   -1.1012 H   0  0  0  0  0  0  0  0  0  0  0  0
    1.6534    1.9341   -1.9739 H   0  0  0  0  0  0  0  0  0  0  0  0
    2.9923    0.9683   -2.6618 H   0  0  0  0  0  0  0  0  0  0  0  0
    0.9522   -1.9774   -6.1360 C   0  0  0  0  0  0  0  0  0  0  0  0
    1.7287   -1.3937   -6.6693 H   0  0  0  0  0  0  0  0  0  0  0  0
    0.1066   -2.1464   -6.8306 H   0  0  0  0  0  0  0  0  0  0  0  0
    1.3937   -2.9710   -5.9065 H   0  0  0  0  0  0  0  0  0  0  0  0
   -2.7125   -0.7922   -2.8605 C   0  0  0  0  0  0  0  0  0  0  0  0
   -3.1864   -1.7265   -3.2166 H   0  0  0  0  0  0  0  0  0  0  0  0
   -3.2653    0.0539   -3.3257 H   0  0  0  0  0  0  0  0  0  0  0  0
   -2.8454   -0.7448   -1.7650 H   0  0  0  0  0  0  0  0  0  0  0  0
   -0.5668    1.2222    2.3026 C   0  0  0  0  0  0  0  0  0  0  0  0
    0.0550    2.3760    2.8377 C   0  0  0  0  0  0  0  0  0  0  0  0
    0.1789    2.4800    4.2319 C   0  0  0  0  0  0  0  0  0  0  0  0
    0.6717    3.3715    4.6508 H   0  0  0  0  0  0  0  0  0  0  0  0
   -0.2673    1.4680    5.0996 C   0  0  0  0  0  0  0  0  0  0  0  0
   -0.8257    0.3125    4.5302 C   0  0  0  0  0  0  0  0  0  0  0  0
   -1.1487   -0.5114    5.1857 H   0  0  0  0  0  0  0  0  0  0  0  0
   -0.9829    0.1662    3.1414 C   0  0  0  0  0  0  0  0  0  0  0  0
    0.6555    3.4296    1.9438 C   0  0  0  0  0  0  0  0  0  0  0  0
    1.4471    3.9841    2.4823 H   0  0  0  0  0  0  0  0  0  0  0  0
   -0.0887    4.1821    1.6028 H   0  0  0  0  0  0  0  0  0  0  0  0
    1.1105    2.9614    1.0484 H   0  0  0  0  0  0  0  0  0  0  0  0
   -0.1446    1.6216    6.5945 C   0  0  0  0  0  0  0  0  0  0  0  0
   -0.1832    0.6423    7.1094 H   0  0  0  0  0  0  0  0  0  0  0  0
   -0.9711    2.2429    7.0018 H   0  0  0  0  0  0  0  0  0  0  0  0
    0.8041    2.1216    6.8740 H   0  0  0  0  0  0  0  0  0  0  0  0
   -1.4921   -1.1208    2.5694 C   0  0  0  0  0  0  0  0  0  0  0  0
   -0.6287   -1.7746    2.2199 H   0  0  0  0  0  0  0  0  0  0  0  0
   -2.1734   -1.0009    1.7087 H   0  0  0  0  0  0  0  0  0  0  0  0
   -1.9883   -1.7439    3.3373 H   0  0  0  0  0  0  0  0  0  0  0  0
  1  2  1  0  0  0  0
  1  7  1  0  0  0  0
  2  3  1  0  0  0  0
  2  4  1  0  0  0  0
  4  5  1  0  0  0  0
  6  4  1  0  0  0  0
  7  8  1  0  0  0  0
  7  4  1  0  0  0  0
  8  2  1  0  0  0  0
  8  9  1  0  0  0  0
 10  8  1  0  0  0  0
  7 11  1  0  0  0  0
  7 12  1  0  0  0  0
 13 15  1  0  0  0  0
 13 16  1  0  0  0  0
 13 22  1  0  0  0  0
 14 15  1  0  0  0  0
 14 19  1  0  0  0  0
 14 42  1  0  0  0  0
 16 17  1  0  0  0  0
 16 18  1  0  0  0  0
 16 19  1  0  0  0  0
 19 20  1  0  0  0  0
 19 21  1  0  0  0  0
 22 23  1  0  0  0  0
 22 29  2  0  0  0  0
 23 24  2  0  0  0  0
 23 30  1  0  0  0  0
 24 25  1  0  0  0  0
 24 26  1  0  0  0  0
 26 27  2  0  0  0  0
 26 34  1  0  0  0  0
 27 28  1  0  0  0  0
 27 29  1  0  0  0  0
 29 38  1  0  0  0  0
 30 31  1  0  0  0  0
 30 32  1  0  0  0  0
 30 33  1  0  0  0  0
 34 35  1  0  0  0  0
 34 36  1  0  0  0  0
 34 37  1  0  0  0  0
 38 39  1  0  0  0  0
 38 40  1  0  0  0  0
 38 41  1  0  0  0  0
 42 43  1  0  0  0  0
 42 49  2  0  0  0  0
 43 44  2  0  0  0  0
 43 50  1  0  0  0  0
 44 45  1  0  0  0  0
 44 46  1  0  0  0  0
 46 47  2  0  0  0  0
 46 54  1  0  0  0  0
 47 48  1  0  0  0  0
 47 49  1  0  0  0  0
 49 58  1  0  0  0  0
 50 51  1  0  0  0  0
 50 52  1  0  0  0  0
 50 53  1  0  0  0  0
 54 55  1  0  0  0  0
 54 56  1  0  0  0  0
 54 57  1  0  0  0  0
 58 59  1  0  0  0  0
 58 60  1  0  0  0  0
 58 61  1  0  0  0  0
  7 15  1  0  0  0  0
M  END
>  <DFT-ENERGY>
-2056.86024316

$$$$
