
  CDK     08142418483D

 73 76  0  0  0  0  0  0  0  0999 V2000
    0.5951    0.2012   -3.9364 H   0  0  0  0  0  0  0  0  0  0  0  0
    1.8035    0.4120   -4.0324 C   0  0  0  0  0  0  0  0  0  0  0  0
    1.7187    0.4907   -5.1364 H   0  0  0  0  0  0  0  0  0  0  0  0
    2.3372   -0.7929   -3.3330 C   0  0  0  0  0  0  0  0  0  0  0  0
    3.3084   -0.7049   -2.8206 H   0  0  0  0  0  0  0  0  0  0  0  0
    2.1358   -1.7637   -3.8154 H   0  0  0  0  0  0  0  0  0  0  0  0
    0.7886   -0.0041   -2.1851 Ru  0  0  0  0  0  0  0  0  0  0  0  0
    1.8389    1.5802   -3.1301 C   0  0  0  0  0  0  0  0  0  0  0  0
    2.7810    1.7922   -2.6070 H   0  0  0  0  0  0  0  0  0  0  0  0
    1.2291    2.4585   -3.4047 H   0  0  0  0  0  0  0  0  0  0  0  0
    2.5101    0.3928   -0.4915 Cl  0  0  0  0  0  0  0  0  0  0  0  0
   -0.6451   -1.5840   -3.3159 Cl  0  0  0  0  0  0  0  0  0  0  0  0
    0.0477   -0.5378   -0.3266 C   0  0  0  0  0  0  0  0  0  0  0  0
   -0.0682   -1.8528    1.8453 C   0  0  0  0  0  0  0  0  0  0  0  0
   -0.8488    0.5338    1.7906 C   0  0  0  0  0  0  0  0  0  0  0  0
   -1.2048   -0.9015    2.2069 C   0  0  0  0  0  0  0  0  0  0  0  0
   -0.5458    0.4976    0.2851 N   0  0  0  0  0  0  0  0  0  0  0  0
    0.0900   -1.9392    0.3168 C   0  0  0  0  0  0  0  0  0  0  0  0
   -0.2580   -2.8604    2.2589 H   0  0  0  0  0  0  0  0  0  0  0  0
   -1.3996   -0.8997    3.2986 H   0  0  0  0  0  0  0  0  0  0  0  0
    0.8822   -1.5089    2.2983 H   0  0  0  0  0  0  0  0  0  0  0  0
   -2.1478   -1.2151    1.7137 H   0  0  0  0  0  0  0  0  0  0  0  0
   -1.1383   -2.7257   -0.2929 C   0  0  0  0  0  0  0  0  0  0  0  0
    1.4174   -2.6374   -0.0766 C   0  0  0  0  0  0  0  0  0  0  0  0
    0.4075    0.9581    2.5914 C   0  0  0  0  0  0  0  0  0  0  0  0
    0.4751    2.0507    2.7088 H   0  0  0  0  0  0  0  0  0  0  0  0
    1.3392    0.5950    2.1195 H   0  0  0  0  0  0  0  0  0  0  0  0
    0.3369    0.5245    3.6090 H   0  0  0  0  0  0  0  0  0  0  0  0
   -1.9939    1.5000    2.0970 C   0  0  0  0  0  0  0  0  0  0  0  0
   -1.8123    2.5034    1.6700 H   0  0  0  0  0  0  0  0  0  0  0  0
   -2.0704    1.6081    3.1968 H   0  0  0  0  0  0  0  0  0  0  0  0
   -2.9676    1.1428    1.7214 H   0  0  0  0  0  0  0  0  0  0  0  0
   -0.8363    1.6452   -0.6001 C   0  0  0  0  0  0  0  0  0  0  0  0
   -1.5562    3.7941   -2.2953 C   0  0  0  0  0  0  0  0  0  0  0  0
   -0.1172    2.8837   -0.5304 C   0  0  0  0  0  0  0  0  0  0  0  0
   -1.9292    1.4939   -1.5273 C   0  0  0  0  0  0  0  0  0  0  0  0
   -2.2517    2.5890   -2.3558 C   0  0  0  0  0  0  0  0  0  0  0  0
   -0.5036    3.9275   -1.3910 C   0  0  0  0  0  0  0  0  0  0  0  0
   -3.0835    2.4867   -3.0620 H   0  0  0  0  0  0  0  0  0  0  0  0
    0.0483    4.8759   -1.3416 H   0  0  0  0  0  0  0  0  0  0  0  0
   -1.8370    4.6312   -2.9512 H   0  0  0  0  0  0  0  0  0  0  0  0
   -2.8134    0.2513   -1.6576 C   0  0  0  0  0  0  0  0  0  0  0  0
   -2.1522   -0.6282   -1.5798 H   0  0  0  0  0  0  0  0  0  0  0  0
    1.0273    3.2148    0.4227 C   0  0  0  0  0  0  0  0  0  0  0  0
    1.3579    2.2779    0.8939 H   0  0  0  0  0  0  0  0  0  0  0  0
    2.2602    3.7915   -0.2942 C   0  0  0  0  0  0  0  0  0  0  0  0
    2.6361    3.0959   -1.0626 H   0  0  0  0  0  0  0  0  0  0  0  0
    3.0729    3.9469    0.4440 H   0  0  0  0  0  0  0  0  0  0  0  0
    2.0526    4.7740   -0.7653 H   0  0  0  0  0  0  0  0  0  0  0  0
    0.5644    4.2194    1.4972 C   0  0  0  0  0  0  0  0  0  0  0  0
    1.3743    4.3939    2.2350 H   0  0  0  0  0  0  0  0  0  0  0  0
   -0.3337    3.8820    2.0496 H   0  0  0  0  0  0  0  0  0  0  0  0
    0.3148    5.1982    1.0380 H   0  0  0  0  0  0  0  0  0  0  0  0
   -3.4879    0.1306   -3.0335 C   0  0  0  0  0  0  0  0  0  0  0  0
   -2.7632    0.2651   -3.8575 H   0  0  0  0  0  0  0  0  0  0  0  0
   -4.3233    0.8515   -3.1576 H   0  0  0  0  0  0  0  0  0  0  0  0
   -3.9141   -0.8866   -3.1345 H   0  0  0  0  0  0  0  0  0  0  0  0
   -3.8918    0.1525   -0.5656 C   0  0  0  0  0  0  0  0  0  0  0  0
   -3.4625   -0.0697    0.4275 H   0  0  0  0  0  0  0  0  0  0  0  0
   -4.5923   -0.6723   -0.8085 H   0  0  0  0  0  0  0  0  0  0  0  0
   -4.4826    1.0886   -0.4874 H   0  0  0  0  0  0  0  0  0  0  0  0
    1.5324   -2.5267   -1.1751 H   0  0  0  0  0  0  0  0  0  0  0  0
    2.2471   -2.0525    0.3650 H   0  0  0  0  0  0  0  0  0  0  0  0
    1.5633   -4.1096    0.3110 C   0  0  0  0  0  0  0  0  0  0  0  0
    1.4160   -4.2843    1.3972 H   0  0  0  0  0  0  0  0  0  0  0  0
    2.5875   -4.4550    0.0649 H   0  0  0  0  0  0  0  0  0  0  0  0
    0.8609   -4.7671   -0.2383 H   0  0  0  0  0  0  0  0  0  0  0  0
   -1.9628   -2.0193   -0.5052 H   0  0  0  0  0  0  0  0  0  0  0  0
   -0.8282   -3.1014   -1.2845 H   0  0  0  0  0  0  0  0  0  0  0  0
   -1.7290   -3.8641    0.5481 C   0  0  0  0  0  0  0  0  0  0  0  0
   -2.2388   -3.5038    1.4646 H   0  0  0  0  0  0  0  0  0  0  0  0
   -0.9796   -4.6164    0.8563 H   0  0  0  0  0  0  0  0  0  0  0  0
   -2.4947   -4.3904   -0.0576 H   0  0  0  0  0  0  0  0  0  0  0  0
  1  2  1  0  0  0  0
  1  7  1  0  0  0  0
  2  3  1  0  0  0  0
  2  4  1  0  0  0  0
  4  5  1  0  0  0  0
  6  4  1  0  0  0  0
  7  8  1  0  0  0  0
  7  4  1  0  0  0  0
  8  2  1  0  0  0  0
  8  9  1  0  0  0  0
 10  8  1  0  0  0  0
  7 11  1  0  0  0  0
  7 12  1  0  0  0  0
 13 17  1  0  0  0  0
 13 18  1  0  0  0  0
 14 19  1  0  0  0  0
 14 21  1  0  0  0  0
 14 16  1  0  0  0  0
 14 18  1  0  0  0  0
 15 17  1  0  0  0  0
 15 16  1  0  0  0  0
 15 25  1  0  0  0  0
 15 29  1  0  0  0  0
 16 20  1  0  0  0  0
 16 22  1  0  0  0  0
 17 33  1  0  0  0  0
 18 23  1  0  0  0  0
 18 24  1  0  0  0  0
 23 68  1  0  0  0  0
 23 69  1  0  0  0  0
 23 70  1  0  0  0  0
 24 62  1  0  0  0  0
 24 63  1  0  0  0  0
 24 64  1  0  0  0  0
 25 26  1  0  0  0  0
 25 27  1  0  0  0  0
 25 28  1  0  0  0  0
 29 30  1  0  0  0  0
 29 31  1  0  0  0  0
 29 32  1  0  0  0  0
 33 36  2  0  0  0  0
 33 35  1  0  0  0  0
 34 37  2  0  0  0  0
 34 38  1  0  0  0  0
 34 41  1  0  0  0  0
 35 38  2  0  0  0  0
 35 44  1  0  0  0  0
 36 37  1  0  0  0  0
 36 42  1  0  0  0  0
 37 39  1  0  0  0  0
 38 40  1  0  0  0  0
 42 43  1  0  0  0  0
 42 54  1  0  0  0  0
 42 58  1  0  0  0  0
 44 45  1  0  0  0  0
 44 46  1  0  0  0  0
 44 50  1  0  0  0  0
 46 47  1  0  0  0  0
 46 48  1  0  0  0  0
 46 49  1  0  0  0  0
 50 51  1  0  0  0  0
 50 52  1  0  0  0  0
 50 53  1  0  0  0  0
 54 55  1  0  0  0  0
 54 56  1  0  0  0  0
 54 57  1  0  0  0  0
 58 59  1  0  0  0  0
 58 60  1  0  0  0  0
 58 61  1  0  0  0  0
 64 65  1  0  0  0  0
 64 66  1  0  0  0  0
 64 67  1  0  0  0  0
 70 71  1  0  0  0  0
 70 72  1  0  0  0  0
 70 73  1  0  0  0  0
  7 13  1  0  0  0  0
M  END
>  <DFT-ENERGY>
-2084.81608686

$$$$
