
  CDK     08152400583D

 73 75  0  0  0  0  0  0  0  0999 V2000
    2.0021    0.6918   -0.8998 Ru  0  0  0  0  0  0  0  0  0  0  0  0
    3.4790    0.9358   -2.1992 C   0  0  0  0  0  0  0  0  0  0  0  0
    3.1639    1.3347   -3.1790 H   0  0  0  0  0  0  0  0  0  0  0  0
    3.8178    2.0616   -1.1514 C   0  0  0  0  0  0  0  0  0  0  0  0
    3.7601    3.0266   -1.6865 H   0  0  0  0  0  0  0  0  0  0  0  0
    2.8415    2.1690    0.0877 C   0  0  0  0  0  0  0  0  0  0  0  0
    3.3096    1.8745    1.0436 H   0  0  0  0  0  0  0  0  0  0  0  0
    2.2688    3.1108    0.1136 H   0  0  0  0  0  0  0  0  0  0  0  0
    4.8192    1.8265   -0.7467 H   0  0  0  0  0  0  0  0  0  0  0  0
    4.2252    0.1228   -2.2217 H   0  0  0  0  0  0  0  0  0  0  0  0
    0.7608    2.2607   -2.2523 Cl  0  0  0  0  0  0  0  0  0  0  0  0
    3.4744   -0.8103    0.2237 Cl  0  0  0  0  0  0  0  0  0  0  0  0
    0.3367   -0.3338   -0.7841 C   0  0  0  0  0  0  0  0  0  0  0  0
   -1.3701   -1.8075   -1.9929 C   0  0  0  0  0  0  0  0  0  0  0  0
   -2.0627   -0.3821   -0.0425 C   0  0  0  0  0  0  0  0  0  0  0  0
   -2.1017   -1.7904   -0.6581 C   0  0  0  0  0  0  0  0  0  0  0  0
   -0.5875   -0.0036    0.1342 N   0  0  0  0  0  0  0  0  0  0  0  0
    0.1206   -1.4691   -1.8091 C   0  0  0  0  0  0  0  0  0  0  0  0
   -1.8316   -1.0806   -2.6896 H   0  0  0  0  0  0  0  0  0  0  0  0
   -1.6505   -2.5223    0.0428 H   0  0  0  0  0  0  0  0  0  0  0  0
   -1.4671   -2.7974   -2.4753 H   0  0  0  0  0  0  0  0  0  0  0  0
   -3.1651   -2.0788   -0.7835 H   0  0  0  0  0  0  0  0  0  0  0  0
    0.7497   -1.0342   -3.1605 C   0  0  0  0  0  0  0  0  0  0  0  0
    0.8963   -2.6941   -1.1930 C   0  0  0  0  0  0  0  0  0  0  0  0
   -2.8010   -0.3543    1.2969 C   0  0  0  0  0  0  0  0  0  0  0  0
   -2.7108    0.6253    1.7995 H   0  0  0  0  0  0  0  0  0  0  0  0
   -2.4438   -1.1281    1.9974 H   0  0  0  0  0  0  0  0  0  0  0  0
   -3.8755   -0.5383    1.0993 H   0  0  0  0  0  0  0  0  0  0  0  0
   -2.7447    0.5992   -1.0266 C   0  0  0  0  0  0  0  0  0  0  0  0
   -3.0984    1.5100   -0.5195 H   0  0  0  0  0  0  0  0  0  0  0  0
   -3.6326    0.1038   -1.4691 H   0  0  0  0  0  0  0  0  0  0  0  0
   -2.0652    0.9037   -1.8442 H   0  0  0  0  0  0  0  0  0  0  0  0
   -0.1518    0.7751    1.3074 C   0  0  0  0  0  0  0  0  0  0  0  0
    0.5913    2.1351    3.6669 C   0  0  0  0  0  0  0  0  0  0  0  0
    0.5280    0.0666    2.3540 C   0  0  0  0  0  0  0  0  0  0  0  0
   -0.4341    2.1687    1.4403 C   0  0  0  0  0  0  0  0  0  0  0  0
   -0.0456    2.8139    2.6315 C   0  0  0  0  0  0  0  0  0  0  0  0
    0.8768    0.7774    3.5162 C   0  0  0  0  0  0  0  0  0  0  0  0
   -0.2603    3.8858    2.7405 H   0  0  0  0  0  0  0  0  0  0  0  0
    1.3942    0.2464    4.3241 H   0  0  0  0  0  0  0  0  0  0  0  0
    0.8740    2.6633    4.5892 H   0  0  0  0  0  0  0  0  0  0  0  0
   -1.1600    3.0438    0.4223 C   0  0  0  0  0  0  0  0  0  0  0  0
   -1.2374    2.4816   -0.5231 H   0  0  0  0  0  0  0  0  0  0  0  0
    0.9314   -1.4066    2.2905 C   0  0  0  0  0  0  0  0  0  0  0  0
    1.2434   -1.6006    1.2487 H   0  0  0  0  0  0  0  0  0  0  0  0
    2.1601   -1.7329    3.1554 C   0  0  0  0  0  0  0  0  0  0  0  0
    2.9827   -1.0163    2.9790 H   0  0  0  0  0  0  0  0  0  0  0  0
    2.5341   -2.7394    2.8828 H   0  0  0  0  0  0  0  0  0  0  0  0
    1.9158   -1.7562    4.2384 H   0  0  0  0  0  0  0  0  0  0  0  0
   -0.2023   -2.3754    2.6663 C   0  0  0  0  0  0  0  0  0  0  0  0
    0.1892   -3.4125    2.7071 H   0  0  0  0  0  0  0  0  0  0  0  0
   -1.0301   -2.3684    1.9355 H   0  0  0  0  0  0  0  0  0  0  0  0
   -0.6232   -2.1332    3.6643 H   0  0  0  0  0  0  0  0  0  0  0  0
   -0.3952    4.3385    0.0932 C   0  0  0  0  0  0  0  0  0  0  0  0
    0.6047    4.1209   -0.3211 H   0  0  0  0  0  0  0  0  0  0  0  0
   -0.2941    5.0019    0.9763 H   0  0  0  0  0  0  0  0  0  0  0  0
   -0.9492    4.9028   -0.6838 H   0  0  0  0  0  0  0  0  0  0  0  0
   -2.5632    3.4261    0.9373 C   0  0  0  0  0  0  0  0  0  0  0  0
   -3.1700    2.5516    1.2421 H   0  0  0  0  0  0  0  0  0  0  0  0
   -3.1246    3.9769    0.1550 H   0  0  0  0  0  0  0  0  0  0  0  0
   -2.4866    4.0901    1.8230 H   0  0  0  0  0  0  0  0  0  0  0  0
    1.9761   -2.5329   -1.3799 H   0  0  0  0  0  0  0  0  0  0  0  0
    0.8016   -2.6634   -0.0908 H   0  0  0  0  0  0  0  0  0  0  0  0
    0.4704   -4.0963   -1.6410 C   0  0  0  0  0  0  0  0  0  0  0  0
   -0.5413   -4.3681   -1.2767 H   0  0  0  0  0  0  0  0  0  0  0  0
    1.1744   -4.8382   -1.2127 H   0  0  0  0  0  0  0  0  0  0  0  0
    0.4770   -4.2295   -2.7389 H   0  0  0  0  0  0  0  0  0  0  0  0
    0.2722   -0.0821   -3.4673 H   0  0  0  0  0  0  0  0  0  0  0  0
    1.8164   -0.7795   -2.9759 H   0  0  0  0  0  0  0  0  0  0  0  0
    0.6877   -2.0433   -4.3090 C   0  0  0  0  0  0  0  0  0  0  0  0
   -0.3461   -2.3882   -4.5141 H   0  0  0  0  0  0  0  0  0  0  0  0
    1.3148   -2.9369   -4.1237 H   0  0  0  0  0  0  0  0  0  0  0  0
    1.0624   -1.5696   -5.2380 H   0  0  0  0  0  0  0  0  0  0  0  0
  2  4  1  0  0  0  0
  2  1  1  0  0  0  0
  2  3  1  0  0  0  0
  4  6  1  0  0  0  0
  4  5  1  0  0  0  0
  6  1  1  0  0  0  0
  6  8  1  0  0  0  0
  7  6  1  0  0  0  0
  9  4  1  0  0  0  0
 10  2  1  0  0  0  0
  1 11  1  0  0  0  0
  1 12  1  0  0  0  0
 13 17  1  0  0  0  0
 13 18  1  0  0  0  0
 14 19  1  0  0  0  0
 14 21  1  0  0  0  0
 14 16  1  0  0  0  0
 14 18  1  0  0  0  0
 15 17  1  0  0  0  0
 15 16  1  0  0  0  0
 15 25  1  0  0  0  0
 15 29  1  0  0  0  0
 16 20  1  0  0  0  0
 16 22  1  0  0  0  0
 17 33  1  0  0  0  0
 18 23  1  0  0  0  0
 18 24  1  0  0  0  0
 23 68  1  0  0  0  0
 23 69  1  0  0  0  0
 23 70  1  0  0  0  0
 24 62  1  0  0  0  0
 24 63  1  0  0  0  0
 24 64  1  0  0  0  0
 25 26  1  0  0  0  0
 25 27  1  0  0  0  0
 25 28  1  0  0  0  0
 29 30  1  0  0  0  0
 29 31  1  0  0  0  0
 29 32  1  0  0  0  0
 33 36  2  0  0  0  0
 33 35  1  0  0  0  0
 34 37  2  0  0  0  0
 34 38  1  0  0  0  0
 34 41  1  0  0  0  0
 35 38  2  0  0  0  0
 35 44  1  0  0  0  0
 36 37  1  0  0  0  0
 36 42  1  0  0  0  0
 37 39  1  0  0  0  0
 38 40  1  0  0  0  0
 42 43  1  0  0  0  0
 42 54  1  0  0  0  0
 42 58  1  0  0  0  0
 44 45  1  0  0  0  0
 44 46  1  0  0  0  0
 44 50  1  0  0  0  0
 46 47  1  0  0  0  0
 46 48  1  0  0  0  0
 46 49  1  0  0  0  0
 50 51  1  0  0  0  0
 50 52  1  0  0  0  0
 50 53  1  0  0  0  0
 54 55  1  0  0  0  0
 54 56  1  0  0  0  0
 54 57  1  0  0  0  0
 58 59  1  0  0  0  0
 58 60  1  0  0  0  0
 58 61  1  0  0  0  0
 64 65  1  0  0  0  0
 64 66  1  0  0  0  0
 64 67  1  0  0  0  0
 70 71  1  0  0  0  0
 70 72  1  0  0  0  0
 70 73  1  0  0  0  0
  1 13  1  0  0  0  0
M  END
>  <DFT-ENERGY>
-2084.86485

$$$$
