CAACEtDIPP-3_A2
  CDK     08122415073D

 87 90  0  0  0  0  0  0  0  0999 V2000
    0.7214   -0.6145   -1.3174 Ru  0  0  0  0  0  0  0  0  0  0  0  0
    2.4992   -0.6145   -2.7066 O   0  0  0  0  0  0  0  0  0  0  0  0
    1.9316    0.3188   -0.3133 C   0  0  0  0  0  0  0  0  0  0  0  0
    1.6988    0.6117    0.7094 H   0  0  0  0  0  0  0  0  0  0  0  0
    2.7347   -1.3897   -3.9324 C   0  0  0  0  0  0  0  0  0  0  0  0
    3.1526   -0.6907   -4.6881 H   0  0  0  0  0  0  0  0  0  0  0  0
    1.3194   -1.8318   -4.2708 C   0  0  0  0  0  0  0  0  0  0  0  0
    0.6350   -0.9608   -4.2904 H   0  0  0  0  0  0  0  0  0  0  0  0
    1.2687   -2.3303   -5.2425 H   0  0  0  0  0  0  0  0  0  0  0  0
    0.9311   -2.5332   -3.5049 H   0  0  0  0  0  0  0  0  0  0  0  0
    3.6688   -2.5389   -3.5965 C   0  0  0  0  0  0  0  0  0  0  0  0
    4.7009   -2.2119   -3.4337 H   0  0  0  0  0  0  0  0  0  0  0  0
    3.3408   -3.0292   -2.6578 H   0  0  0  0  0  0  0  0  0  0  0  0
    3.6714   -3.3064   -4.3767 H   0  0  0  0  0  0  0  0  0  0  0  0
    3.4914    0.1839   -2.2016 C   0  0  0  0  0  0  0  0  0  0  0  0
    4.6605    0.5326   -2.8546 C   0  0  0  0  0  0  0  0  0  0  0  0
    4.8802    0.1805   -3.8598 H   0  0  0  0  0  0  0  0  0  0  0  0
    5.5617    1.3637   -2.1971 C   0  0  0  0  0  0  0  0  0  0  0  0
    6.4849    1.6505   -2.7055 H   0  0  0  0  0  0  0  0  0  0  0  0
    5.3117    1.8353   -0.9118 C   0  0  0  0  0  0  0  0  0  0  0  0
    6.0373    2.4787   -0.4170 H   0  0  0  0  0  0  0  0  0  0  0  0
    4.1420    1.4750   -0.2702 C   0  0  0  0  0  0  0  0  0  0  0  0
    3.9488    1.8296    0.7411 H   0  0  0  0  0  0  0  0  0  0  0  0
    3.2065    0.6596   -0.9096 C   0  0  0  0  0  0  0  0  0  0  0  0
    1.3373   -2.8659   -0.7419 Cl  0  0  0  0  0  0  0  0  0  0  0  0
   -0.0902    1.0676   -2.6576 Cl  0  0  0  0  0  0  0  0  0  0  0  0
   -1.0001   -0.4637   -0.3234 C   0  0  0  0  0  0  0  0  0  0  0  0
   -3.4816   -0.9526   -0.7800 C   0  0  0  0  0  0  0  0  0  0  0  0
   -2.8816    0.7938    0.9233 C   0  0  0  0  0  0  0  0  0  0  0  0
   -3.7935   -0.4095    0.6089 C   0  0  0  0  0  0  0  0  0  0  0  0
   -1.4168    0.4302    0.6144 N   0  0  0  0  0  0  0  0  0  0  0  0
   -2.0445   -1.5123   -0.8228 C   0  0  0  0  0  0  0  0  0  0  0  0
   -3.5983   -0.1631   -1.5487 H   0  0  0  0  0  0  0  0  0  0  0  0
   -3.6725   -1.2024    1.3735 H   0  0  0  0  0  0  0  0  0  0  0  0
   -4.2124   -1.7385   -1.0499 H   0  0  0  0  0  0  0  0  0  0  0  0
   -4.8544   -0.1024    0.6768 H   0  0  0  0  0  0  0  0  0  0  0  0
   -1.7161   -1.9390   -2.2828 C   0  0  0  0  0  0  0  0  0  0  0  0
   -1.8824   -2.7171    0.1554 C   0  0  0  0  0  0  0  0  0  0  0  0
   -3.0614    1.1620    2.4051 C   0  0  0  0  0  0  0  0  0  0  0  0
   -2.4860    2.0523    2.6908 H   0  0  0  0  0  0  0  0  0  0  0  0
   -2.7535    0.3525    3.0789 H   0  0  0  0  0  0  0  0  0  0  0  0
   -4.1132    1.3849    2.6192 H   0  0  0  0  0  0  0  0  0  0  0  0
   -3.2890    1.9870    0.0425 C   0  0  0  0  0  0  0  0  0  0  0  0
   -3.0476    2.9513    0.5178 H   0  0  0  0  0  0  0  0  0  0  0  0
   -4.3647    1.9935   -0.1587 H   0  0  0  0  0  0  0  0  0  0  0  0
   -2.7746    1.9765   -0.9323 H   0  0  0  0  0  0  0  0  0  0  0  0
   -0.4658    1.1464    1.4744 C   0  0  0  0  0  0  0  0  0  0  0  0
    1.1460    2.4910    3.3417 C   0  0  0  0  0  0  0  0  0  0  0  0
   -0.0314    0.4773    2.6527 C   0  0  0  0  0  0  0  0  0  0  0  0
   -0.0537    2.4742    1.2159 C   0  0  0  0  0  0  0  0  0  0  0  0
    0.7436    3.1289    2.1729 C   0  0  0  0  0  0  0  0  0  0  0  0
    0.7723    1.1660    3.5694 C   0  0  0  0  0  0  0  0  0  0  0  0
    1.0564    4.1571    1.9861 H   0  0  0  0  0  0  0  0  0  0  0  0
    1.1133    0.6586    4.4723 H   0  0  0  0  0  0  0  0  0  0  0  0
    1.7582    3.0183    4.0719 H   0  0  0  0  0  0  0  0  0  0  0  0
   -0.3786    3.2389   -0.0562 C   0  0  0  0  0  0  0  0  0  0  0  0
   -1.0046    2.5926   -0.7321 H   0  0  0  0  0  0  0  0  0  0  0  0
   -0.3580   -0.9800    2.9398 C   0  0  0  0  0  0  0  0  0  0  0  0
   -1.1762   -1.3420    2.2502 H   0  0  0  0  0  0  0  0  0  0  0  0
    0.8849   -1.8281    2.6507 C   0  0  0  0  0  0  0  0  0  0  0  0
    1.2191   -1.6926    1.6043 H   0  0  0  0  0  0  0  0  0  0  0  0
    0.6828   -2.8977    2.7749 H   0  0  0  0  0  0  0  0  0  0  0  0
    1.7284   -1.5728    3.2984 H   0  0  0  0  0  0  0  0  0  0  0  0
   -0.8625   -1.1792    4.3745 C   0  0  0  0  0  0  0  0  0  0  0  0
   -1.1921   -2.2128    4.5307 H   0  0  0  0  0  0  0  0  0  0  0  0
   -1.7078   -0.5183    4.5970 H   0  0  0  0  0  0  0  0  0  0  0  0
   -0.0820   -0.9787    5.1175 H   0  0  0  0  0  0  0  0  0  0  0  0
    0.9059    3.5740   -0.8241 C   0  0  0  0  0  0  0  0  0  0  0  0
    1.4712    2.6576   -1.0608 H   0  0  0  0  0  0  0  0  0  0  0  0
    1.5666    4.2500   -0.2774 H   0  0  0  0  0  0  0  0  0  0  0  0
    0.6685    4.0356   -1.7907 H   0  0  0  0  0  0  0  0  0  0  0  0
   -1.1672    4.5174    0.2658 C   0  0  0  0  0  0  0  0  0  0  0  0
   -2.1098    4.2813    0.7810 H   0  0  0  0  0  0  0  0  0  0  0  0
   -1.4163    5.0592   -0.6540 H   0  0  0  0  0  0  0  0  0  0  0  0
   -0.6007    5.2040    0.9026 H   0  0  0  0  0  0  0  0  0  0  0  0
   -0.9360   -3.2509   -0.0887 H   0  0  0  0  0  0  0  0  0  0  0  0
   -1.7354   -2.3306    1.1927 H   0  0  0  0  0  0  0  0  0  0  0  0
   -3.0178   -3.7350    0.1605 C   0  0  0  0  0  0  0  0  0  0  0  0
   -3.9489   -3.3244    0.5627 H   0  0  0  0  0  0  0  0  0  0  0  0
   -2.7489   -4.6054    0.7714 H   0  0  0  0  0  0  0  0  0  0  0  0
   -3.2264   -4.1045   -0.8574 H   0  0  0  0  0  0  0  0  0  0  0  0
   -1.5269   -1.0323   -2.9071 H   0  0  0  0  0  0  0  0  0  0  0  0
   -0.7913   -2.5738   -2.2955 H   0  0  0  0  0  0  0  0  0  0  0  0
   -2.8047   -2.7536   -2.9866 C   0  0  0  0  0  0  0  0  0  0  0  0
   -3.6929   -2.1541   -3.2107 H   0  0  0  0  0  0  0  0  0  0  0  0
   -3.1213   -3.6138   -2.3736 H   0  0  0  0  0  0  0  0  0  0  0  0
   -2.4328   -3.1505   -3.9386 H   0  0  0  0  0  0  0  0  0  0  0  0
  2  1  1  0  0  0  0
  3  1  2  0  0  0  0
  4  3  1  0  0  0  0
  5  2  1  0  0  0  0
  6  5  1  0  0  0  0
  7  5  1  0  0  0  0
  8  7  1  0  0  0  0
  9  7  1  0  0  0  0
 10  7  1  0  0  0  0
 11  5  1  0  0  0  0
 12 11  1  0  0  0  0
 13 11  1  0  0  0  0
 14 11  1  0  0  0  0
 15  2  1  0  0  0  0
 15 24  1  0  0  0  0
 16 15  2  0  0  0  0
 17 16  1  0  0  0  0
 18 16  1  0  0  0  0
 19 18  1  0  0  0  0
 20 18  2  0  0  0  0
 21 20  1  0  0  0  0
 22 20  1  0  0  0  0
 22 24  2  0  0  0  0
 23 22  1  0  0  0  0
 24  3  1  0  0  0  0
  1 25  1  0  0  0  0
  1 26  1  0  0  0  0
 27 31  1  0  0  0  0
 27 32  1  0  0  0  0
 28 33  1  0  0  0  0
 28 35  1  0  0  0  0
 28 30  1  0  0  0  0
 28 32  1  0  0  0  0
 29 31  1  0  0  0  0
 29 30  1  0  0  0  0
 29 39  1  0  0  0  0
 29 43  1  0  0  0  0
 30 34  1  0  0  0  0
 30 36  1  0  0  0  0
 31 47  1  0  0  0  0
 32 37  1  0  0  0  0
 32 38  1  0  0  0  0
 37 82  1  0  0  0  0
 37 83  1  0  0  0  0
 37 84  1  0  0  0  0
 38 76  1  0  0  0  0
 38 77  1  0  0  0  0
 38 78  1  0  0  0  0
 39 40  1  0  0  0  0
 39 41  1  0  0  0  0
 39 42  1  0  0  0  0
 43 44  1  0  0  0  0
 43 45  1  0  0  0  0
 43 46  1  0  0  0  0
 47 50  2  0  0  0  0
 47 49  1  0  0  0  0
 48 51  2  0  0  0  0
 48 52  1  0  0  0  0
 48 55  1  0  0  0  0
 49 52  2  0  0  0  0
 49 58  1  0  0  0  0
 50 51  1  0  0  0  0
 50 56  1  0  0  0  0
 51 53  1  0  0  0  0
 52 54  1  0  0  0  0
 56 57  1  0  0  0  0
 56 68  1  0  0  0  0
 56 72  1  0  0  0  0
 58 59  1  0  0  0  0
 58 60  1  0  0  0  0
 58 64  1  0  0  0  0
 60 61  1  0  0  0  0
 60 62  1  0  0  0  0
 60 63  1  0  0  0  0
 64 65  1  0  0  0  0
 64 66  1  0  0  0  0
 64 67  1  0  0  0  0
 68 69  1  0  0  0  0
 68 70  1  0  0  0  0
 68 71  1  0  0  0  0
 72 73  1  0  0  0  0
 72 74  1  0  0  0  0
 72 75  1  0  0  0  0
 78 79  1  0  0  0  0
 78 80  1  0  0  0  0
 78 81  1  0  0  0  0
 84 85  1  0  0  0  0
 84 86  1  0  0  0  0
 84 87  1  0  0  0  0
  1 27  1  0  0  0  0
M  END
> <FrozenCore-PM6_ENERGY>
-175.503

> <RMSD_CONF_CG-CS>
1.042387

> <RMSD_CONF_GO-CS>
0.000000

> <UID>


> <DESCRIPTOR_DEFINITION_1>
desc1=( echo "1 * ( e( $hartree_to_kcalmol * ( ( $freeEnergyZ - $freeEnergyD ) - ( $freeEnergyX + 2*$G_Ethene - $freeEnergyD - 2*$G_Propene ) - $DDG_reference_HGII ) / $kT ) ) " | bc -l )

> <DESCRIPTOR_DEFINITION_2>
desc1=( echo "1 * ( e( $hartree_to_kcalmol * ( ( $freeEnergyZ - $freeEnergyD ) - ( $freeEnergyX + 2*$G_Ethene - $freeEnergyD - 2*$G_Propene ) - $DDG_reference_HGII ) / $kT ) ) " | bc -l )

> <DESCRIPTOR_DEFINITION_3>
desc1=( echo "1 * ( e( $hartree_to_kcalmol * ( ( $freeEnergyZ - $freeEnergyD ) - ( $freeEnergyX + 2*$G_Ethene - $freeEnergyD - 2*$G_Propene ) - $DDG_reference_HGII ) / $kT ) ) " | bc -l )

> <WEIGHT_DEFINITION_1>
w1=$( echo "1 / ( 1 + e( $hartree_to_kcalmol * ( ( ( $freeEnergyX + 2*$G_Ethene - $freeEnergyD - 2*$G_Propene ) ) - ( $DG_referenceProductionBarrier + $magnitude4 ) ) / $kT ) )" | bc -l )

> <WEIGHT_DEFINITION_2>
w1=$( echo "1 / ( 1 + e( $hartree_to_kcalmol * ( ( ( $freeEnergyX + 2*$G_Ethene - $freeEnergyD - 2*$G_Propene ) ) - ( $DG_referenceProductionBarrier + $magnitude4 ) ) / $kT ) )" | bc -l )

> <WEIGHT_DEFINITION_3>
w1=$( echo "1 / ( 1 + e( $hartree_to_kcalmol * ( ( ( $freeEnergyX + 2*$G_Ethene - $freeEnergyD - 2*$G_Propene ) ) - ( $DG_referenceProductionBarrier + $magnitude4 ) ) / $kT ) )" | bc -l )

> <WEIGHT_DEFINITION_4>
w1=$( echo "1 / ( 1 + e( $hartree_to_kcalmol * ( ( ( $freeEnergyX + 2*$G_Ethene - $freeEnergyD - 2*$G_Propene ) ) - ( $DG_referenceProductionBarrier + $magnitude4 ) ) / $kT ) )" | bc -l )

> <CALCULATION_OF_OVERALL_FITNESS>
fitness=$( echo "( $desc1 + $desc2 + $desc3 ) * ( $w1 * $w2 * $w3 * $w4 )" | bc -l )

> <freeEnergyA>
-2430.10070126

> <freeEnergyF>
-2430.07846348

> <freeEnergyE>
-2430.10070126

> <freeEnergyC>
-2084.84488013

> <freeEnergyL>
-952.237810517

> <freeEnergyX>
-2163.370239

> <freeEnergyZ>
-2084.81608704

> <freeEnergyD>
-2084.86484992

> <G_Propene>
-117.738020895

> <G_Ethene>
-78.4716324751

> <G_HoveydaProd>
-502.204109499

> <G_SIMes>
-924.27249048

> <G_HG_RuCl2_SIMes>
-2402.13728523

> <DG_referenceProductionBarrier>
0.01468968

> <DG_referencePrecursorStabilityHII>
-0.0052201621

> <DG_referencePrecursorStabilityHI>
0.0117775312

> <DDG_referencePrecursorStability>
.0169976933

> <DG_referenceSynt>
0.0226072217

> <hartree_to_kcalmol>
627.49467516

> <boltzmann_constant>
0.0000000000000000000000138066

> <avogadro_number>
602214000000000000000000

> <jmol_to_kcalmol>
0.00023901

> <temp>
313.15

> <kT>
.6223089948281258706000000000

> <magnitude1>
1.43290809

> <magnitude2>
2.86581618

> <magnitude3>
4.29872427

> <magnitude4>
5.73163236

> <DFT_IDENTIFIER>
1723679310584

> <DFT_MACHINE>
158.39.114.73

> <XTB_IDENTIFIER>
NREC

> <XTB_MACHINE>
NREC

> <DESCRIPTOR_1>
.42176522735376835081

> <DESCRIPTOR_2>
13.412774106404954232

> <DESCRIPTOR_3>
0.0000000001

> <WEIGHT_1>
.98289780491490351800

> <WEIGHT_2>
.99999999560816482441

> <WEIGHT_3>
.99999999991413965941

> <WEIGHT_4>
.99999998172903986726

> <FITNESS>
13.59793803392381419070

$$$$
