CpMes-1_A2
  CDK     08122416003D

 67 71  0  0  0  0  0  0  0  0999 V2000
    0.3120   -0.3172   -0.8375 Ru  0  0  0  0  0  0  0  0  0  0  0  0
    2.0898   -0.3172   -2.2267 O   0  0  0  0  0  0  0  0  0  0  0  0
    1.5222    0.6161    0.1666 C   0  0  0  0  0  0  0  0  0  0  0  0
    1.2894    0.9090    1.1893 H   0  0  0  0  0  0  0  0  0  0  0  0
    2.3253   -1.0924   -3.4525 C   0  0  0  0  0  0  0  0  0  0  0  0
    2.7596   -0.3991   -4.2043 H   0  0  0  0  0  0  0  0  0  0  0  0
    0.9000   -1.5022   -3.7969 C   0  0  0  0  0  0  0  0  0  0  0  0
    0.8424   -2.0051   -4.7657 H   0  0  0  0  0  0  0  0  0  0  0  0
    0.4790   -2.1869   -3.0279 H   0  0  0  0  0  0  0  0  0  0  0  0
    0.2406   -0.6109   -3.8264 H   0  0  0  0  0  0  0  0  0  0  0  0
    3.2369   -2.2560   -3.1095 C   0  0  0  0  0  0  0  0  0  0  0  0
    2.8999   -2.7360   -2.1687 H   0  0  0  0  0  0  0  0  0  0  0  0
    3.2276   -3.0270   -3.8863 H   0  0  0  0  0  0  0  0  0  0  0  0
    4.2745   -1.9460   -2.9467 H   0  0  0  0  0  0  0  0  0  0  0  0
    3.0820    0.4812   -1.7217 C   0  0  0  0  0  0  0  0  0  0  0  0
    4.2511    0.8300   -2.3747 C   0  0  0  0  0  0  0  0  0  0  0  0
    4.4701    0.4790   -3.3806 H   0  0  0  0  0  0  0  0  0  0  0  0
    5.1523    1.6610   -1.7172 C   0  0  0  0  0  0  0  0  0  0  0  0
    6.0750    1.9487   -2.2262 H   0  0  0  0  0  0  0  0  0  0  0  0
    4.9023    2.1326   -0.4319 C   0  0  0  0  0  0  0  0  0  0  0  0
    5.6271    2.7775    0.0622 H   0  0  0  0  0  0  0  0  0  0  0  0
    3.7326    1.7723    0.2097 C   0  0  0  0  0  0  0  0  0  0  0  0
    3.5394    2.1269    1.2210 H   0  0  0  0  0  0  0  0  0  0  0  0
    2.7971    0.9569   -0.4297 C   0  0  0  0  0  0  0  0  0  0  0  0
    0.9137   -2.5169   -0.2753 Cl  0  0  0  0  0  0  0  0  0  0  0  0
   -0.5128    1.3922   -2.1995 Cl  0  0  0  0  0  0  0  0  0  0  0  0
   -1.2754   -0.3405    0.3233 C   0  0  0  0  0  0  0  0  0  0  0  0
   -1.5782    0.0221    1.6383 N   0  0  0  0  0  0  0  0  0  0  0  0
   -2.9124   -0.3620    1.9717 C   0  0  0  0  0  0  0  0  0  0  0  0
   -3.4586   -0.9515    0.8570 C   0  0  0  0  0  0  0  0  0  0  0  0
   -2.4716   -0.9216   -0.1624 N   0  0  0  0  0  0  0  0  0  0  0  0
   -0.7391    0.6999    2.5950 C   0  0  0  0  0  0  0  0  0  0  0  0
    0.7178    2.0370    4.5701 C   0  0  0  0  0  0  0  0  0  0  0  0
   -0.0347   -0.0512    3.5647 C   0  0  0  0  0  0  0  0  0  0  0  0
   -0.6546    2.1129    2.5594 C   0  0  0  0  0  0  0  0  0  0  0  0
    0.0684    2.7669    3.5630 C   0  0  0  0  0  0  0  0  0  0  0  0
    0.6788    0.6350    4.5548 C   0  0  0  0  0  0  0  0  0  0  0  0
    0.1295    3.8533    3.5575 H   0  0  0  0  0  0  0  0  0  0  0  0
    1.2142    0.0713    5.3161 H   0  0  0  0  0  0  0  0  0  0  0  0
   -1.2899    2.8750    1.4474 C   0  0  0  0  0  0  0  0  0  0  0  0
   -1.0594    3.9473    1.4702 H   0  0  0  0  0  0  0  0  0  0  0  0
   -2.3850    2.7742    1.4529 H   0  0  0  0  0  0  0  0  0  0  0  0
   -0.9470    2.4970    0.4583 H   0  0  0  0  0  0  0  0  0  0  0  0
   -0.0281   -1.5397    3.5052 C   0  0  0  0  0  0  0  0  0  0  0  0
   -1.0329   -1.9627    3.6470 H   0  0  0  0  0  0  0  0  0  0  0  0
    0.6315   -1.9995    4.2512 H   0  0  0  0  0  0  0  0  0  0  0  0
    0.3211   -1.8914    2.5103 H   0  0  0  0  0  0  0  0  0  0  0  0
    1.4777    2.7504    5.6398 C   0  0  0  0  0  0  0  0  0  0  0  0
    1.4436    2.2186    6.6007 H   0  0  0  0  0  0  0  0  0  0  0  0
    1.0974    3.7649    5.8213 H   0  0  0  0  0  0  0  0  0  0  0  0
    2.5388    2.8482    5.3630 H   0  0  0  0  0  0  0  0  0  0  0  0
   -4.4334   -1.3805    0.7105 H   0  0  0  0  0  0  0  0  0  0  0  0
   -3.3325   -0.1790    2.9430 H   0  0  0  0  0  0  0  0  0  0  0  0
   -2.6264   -1.4257   -1.5585 C   0  0  0  0  0  0  0  0  0  0  0  0
   -1.9523   -2.8131   -1.7051 C   0  0  0  0  0  0  0  0  0  0  0  0
   -2.9672   -3.7270   -2.4067 C   0  0  0  0  0  0  0  0  0  0  0  0
   -4.3494   -3.0896   -2.1769 C   0  0  0  0  0  0  0  0  0  0  0  0
   -4.0989   -1.5829   -2.0034 C   0  0  0  0  0  0  0  0  0  0  0  0
   -2.1205   -0.6679   -2.2309 H   0  0  0  0  0  0  0  0  0  0  0  0
   -1.6639   -3.2286   -0.7169 H   0  0  0  0  0  0  0  0  0  0  0  0
   -0.9956   -2.7282   -2.2668 H   0  0  0  0  0  0  0  0  0  0  0  0
   -2.7467   -3.7999   -3.4863 H   0  0  0  0  0  0  0  0  0  0  0  0
   -2.9233   -4.7553   -2.0111 H   0  0  0  0  0  0  0  0  0  0  0  0
   -4.8234   -3.5117   -1.2730 H   0  0  0  0  0  0  0  0  0  0  0  0
   -5.0359   -3.2933   -3.0145 H   0  0  0  0  0  0  0  0  0  0  0  0
   -4.8168   -1.1239   -1.3048 H   0  0  0  0  0  0  0  0  0  0  0  0
   -4.2455   -1.0515   -2.9632 H   0  0  0  0  0  0  0  0  0  0  0  0
  2  1  1  0  0  0  0
  3  1  2  0  0  0  0
  4  3  1  0  0  0  0
  5  2  1  0  0  0  0
  6  5  1  0  0  0  0
  7  5  1  0  0  0  0
  8  7  1  0  0  0  0
  9  7  1  0  0  0  0
 10  7  1  0  0  0  0
 11  5  1  0  0  0  0
 12 11  1  0  0  0  0
 13 11  1  0  0  0  0
 14 11  1  0  0  0  0
 15  2  1  0  0  0  0
 15 24  1  0  0  0  0
 16 15  2  0  0  0  0
 17 16  1  0  0  0  0
 18 16  1  0  0  0  0
 19 18  1  0  0  0  0
 20 18  2  0  0  0  0
 21 20  1  0  0  0  0
 22 20  1  0  0  0  0
 22 24  2  0  0  0  0
 23 22  1  0  0  0  0
 24  3  1  0  0  0  0
  1 25  1  0  0  0  0
  1 26  1  0  0  0  0
 27 28  1  0  0  0  0
 27 31  1  0  0  0  0
 28 29  1  0  0  0  0
 28 32  1  0  0  0  0
 29 30  2  0  0  0  0
 29 53  1  0  0  0  0
 30 31  1  0  0  0  0
 30 52  1  0  0  0  0
 31 54  1  0  0  0  0
 32 35  2  0  0  0  0
 32 34  1  0  0  0  0
 33 36  2  0  0  0  0
 33 37  1  0  0  0  0
 33 48  1  0  0  0  0
 34 37  2  0  0  0  0
 34 44  1  0  0  0  0
 35 36  1  0  0  0  0
 35 40  1  0  0  0  0
 36 38  1  0  0  0  0
 37 39  1  0  0  0  0
 40 41  1  0  0  0  0
 40 42  1  0  0  0  0
 40 43  1  0  0  0  0
 44 45  1  0  0  0  0
 44 46  1  0  0  0  0
 44 47  1  0  0  0  0
 48 49  1  0  0  0  0
 48 50  1  0  0  0  0
 48 51  1  0  0  0  0
 54 59  1  0  0  0  0
 54 55  1  0  0  0  0
 54 58  1  0  0  0  0
 55 60  1  0  0  0  0
 55 61  1  0  0  0  0
 55 56  1  0  0  0  0
 56 62  1  0  0  0  0
 56 63  1  0  0  0  0
 56 57  1  0  0  0  0
 57 64  1  0  0  0  0
 57 65  1  0  0  0  0
 57 58  1  0  0  0  0
 58 66  1  0  0  0  0
 58 67  1  0  0  0  0
  1 27  1  0  0  0  0
M  END
> <FrozenCore-PM6_ENERGY>
-29.448

> <RMSD_CONF_CG-CS>
0.671123

> <RMSD_CONF_GO-CS>
0.000000

> <UID>


> <DESCRIPTOR_DEFINITION_1>
desc1=( echo "1 * ( e( $hartree_to_kcalmol * ( ( $freeEnergyZ - $freeEnergyD ) - ( $freeEnergyX + 2*$G_Ethene - $freeEnergyD - 2*$G_Propene ) - $DDG_reference_HGII ) / $kT ) ) " | bc -l )

> <DESCRIPTOR_DEFINITION_2>
desc1=( echo "1 * ( e( $hartree_to_kcalmol * ( ( $freeEnergyZ - $freeEnergyD ) - ( $freeEnergyX + 2*$G_Ethene - $freeEnergyD - 2*$G_Propene ) - $DDG_reference_HGII ) / $kT ) ) " | bc -l )

> <DESCRIPTOR_DEFINITION_3>
desc1=( echo "1 * ( e( $hartree_to_kcalmol * ( ( $freeEnergyZ - $freeEnergyD ) - ( $freeEnergyX + 2*$G_Ethene - $freeEnergyD - 2*$G_Propene ) - $DDG_reference_HGII ) / $kT ) ) " | bc -l )

> <WEIGHT_DEFINITION_1>
w1=$( echo "1 / ( 1 + e( $hartree_to_kcalmol * ( ( ( $freeEnergyX + 2*$G_Ethene - $freeEnergyD - 2*$G_Propene ) ) - ( $DG_referenceProductionBarrier + $magnitude4 ) ) / $kT ) )" | bc -l )

> <WEIGHT_DEFINITION_2>
w1=$( echo "1 / ( 1 + e( $hartree_to_kcalmol * ( ( ( $freeEnergyX + 2*$G_Ethene - $freeEnergyD - 2*$G_Propene ) ) - ( $DG_referenceProductionBarrier + $magnitude4 ) ) / $kT ) )" | bc -l )

> <WEIGHT_DEFINITION_3>
w1=$( echo "1 / ( 1 + e( $hartree_to_kcalmol * ( ( ( $freeEnergyX + 2*$G_Ethene - $freeEnergyD - 2*$G_Propene ) ) - ( $DG_referenceProductionBarrier + $magnitude4 ) ) / $kT ) )" | bc -l )

> <WEIGHT_DEFINITION_4>
w1=$( echo "1 / ( 1 + e( $hartree_to_kcalmol * ( ( ( $freeEnergyX + 2*$G_Ethene - $freeEnergyD - 2*$G_Propene ) ) - ( $DG_referenceProductionBarrier + $magnitude4 ) ) / $kT ) )" | bc -l )

> <CALCULATION_OF_OVERALL_FITNESS>
fitness=$( echo "( $desc1 + $desc2 + $desc3 ) * ( $w1 * $w2 * $w3 * $w4 )" | bc -l )

> <freeEnergyA>
-2247.47669465

> <freeEnergyF>
-2247.46513643

> <freeEnergyE>
-2247.47669465

> <freeEnergyC>
-1902.21710366

> <freeEnergyL>
-769.612252193

> <freeEnergyX>
-1980.74570794

> <freeEnergyZ>
-1902.19976701

> <freeEnergyD>
-1902.23573409

> <G_Propene>
-117.738020895

> <G_Ethene>
-78.4716324751

> <G_HoveydaProd>
-502.204109499

> <G_SIMes>
-924.27249048

> <G_HG_RuCl2_SIMes>
-2402.13728523

> <DG_referenceProductionBarrier>
0.01468968

> <DG_referencePrecursorStabilityHII>
-0.0052201621

> <DG_referencePrecursorStabilityHI>
0.0117775312

> <DDG_referencePrecursorStability>
.0169976933

> <DG_referenceSynt>
0.0226072217

> <hartree_to_kcalmol>
627.49467516

> <boltzmann_constant>
0.0000000000000000000000138066

> <avogadro_number>
602214000000000000000000

> <jmol_to_kcalmol>
0.00023901

> <temp>
313.15

> <kT>
.6223089948281258706000000000

> <magnitude1>
1.43290809

> <magnitude2>
2.86581618

> <magnitude3>
4.29872427

> <magnitude4>
5.73163236

> <DFT_IDENTIFIER>
1723556563074

> <DFT_MACHINE>
158.39.114.73

> <XTB_IDENTIFIER>
NREC

> <XTB_MACHINE>
NREC

> <DESCRIPTOR_1>
.00010699176433945385

> <DESCRIPTOR_2>
8.260396503825939432

> <DESCRIPTOR_3>
0.0000000001

> <WEIGHT_1>
.99982910205273636326

> <WEIGHT_2>
.99999980342950855703

> <WEIGHT_3>
.99999999998204124665

> <WEIGHT_4>
.99913282350199972543

> <FITNESS>
8.25192808006806080058

$$$$
