
  CDK     08132411023D

 53 57  0  0  0  0  0  0  0  0999 V2000
    0.4952   -0.1594   -3.2001 H   0  0  0  0  0  0  0  0  0  0  0  0
    1.6669    0.1679   -3.3849 C   0  0  0  0  0  0  0  0  0  0  0  0
    1.5489   -0.0296   -4.4713 H   0  0  0  0  0  0  0  0  0  0  0  0
    2.3467   -0.7767   -2.4557 C   0  0  0  0  0  0  0  0  0  0  0  0
    3.3093   -0.4710   -2.0170 H   0  0  0  0  0  0  0  0  0  0  0  0
    2.2443   -1.8501   -2.6909 H   0  0  0  0  0  0  0  0  0  0  0  0
    0.7308    0.0698   -1.4570 Ru  0  0  0  0  0  0  0  0  0  0  0  0
    1.5638    1.5133   -2.7806 C   0  0  0  0  0  0  0  0  0  0  0  0
    2.4648    1.9692   -2.3501 H   0  0  0  0  0  0  0  0  0  0  0  0
    0.8381    2.2109   -3.2342 H   0  0  0  0  0  0  0  0  0  0  0  0
    2.4349    1.0583   -0.0121 Cl  0  0  0  0  0  0  0  0  0  0  0  0
   -0.6969   -1.7654   -1.9818 Cl  0  0  0  0  0  0  0  0  0  0  0  0
   -0.0432   -0.1221    0.4240 C   0  0  0  0  0  0  0  0  0  0  0  0
   -1.0637    0.6562    0.8956 N   0  0  0  0  0  0  0  0  0  0  0  0
   -1.4268    0.2556    2.1817 C   0  0  0  0  0  0  0  0  0  0  0  0
   -0.6113   -0.7976    2.5063 C   0  0  0  0  0  0  0  0  0  0  0  0
    0.2262   -1.0124    1.4139 N   0  0  0  0  0  0  0  0  0  0  0  0
   -1.6674    1.7084    0.1133 C   0  0  0  0  0  0  0  0  0  0  0  0
   -2.7937    3.7264   -1.4700 C   0  0  0  0  0  0  0  0  0  0  0  0
   -1.1191    3.0091    0.1829 C   0  0  0  0  0  0  0  0  0  0  0  0
   -2.8028    1.4011   -0.6698 C   0  0  0  0  0  0  0  0  0  0  0  0
   -3.3415    2.4318   -1.4599 C   0  0  0  0  0  0  0  0  0  0  0  0
   -1.6984    3.9979   -0.6308 C   0  0  0  0  0  0  0  0  0  0  0  0
   -4.2233    2.2112   -2.0811 H   0  0  0  0  0  0  0  0  0  0  0  0
   -1.2822    5.0166   -0.5952 H   0  0  0  0  0  0  0  0  0  0  0  0
   -3.4227    0.0312   -0.6506 C   0  0  0  0  0  0  0  0  0  0  0  0
   -2.7323   -0.7217   -1.0875 H   0  0  0  0  0  0  0  0  0  0  0  0
   -4.3649    0.0209   -1.2294 H   0  0  0  0  0  0  0  0  0  0  0  0
   -3.6476   -0.3000    0.3839 H   0  0  0  0  0  0  0  0  0  0  0  0
    0.0232    3.3298    1.1053 C   0  0  0  0  0  0  0  0  0  0  0  0
   -0.2005    3.0210    2.1473 H   0  0  0  0  0  0  0  0  0  0  0  0
    0.2342    4.4153    1.1038 H   0  0  0  0  0  0  0  0  0  0  0  0
    0.9440    2.7848    0.8046 H   0  0  0  0  0  0  0  0  0  0  0  0
   -3.3644    4.7994   -2.3629 C   0  0  0  0  0  0  0  0  0  0  0  0
   -3.2593    5.8051   -1.9108 H   0  0  0  0  0  0  0  0  0  0  0  0
   -4.4364    4.6242   -2.5784 H   0  0  0  0  0  0  0  0  0  0  0  0
   -2.8333    4.8232   -3.3386 H   0  0  0  0  0  0  0  0  0  0  0  0
   -0.5570   -1.4028    3.4130 H   0  0  0  0  0  0  0  0  0  0  0  0
   -2.2214    0.7576    2.7371 H   0  0  0  0  0  0  0  0  0  0  0  0
    1.2694   -2.0310    1.2982 C   0  0  0  0  0  0  0  0  0  0  0  0
    2.3473   -1.9721    2.3879 C   0  0  0  0  0  0  0  0  0  0  0  0
    3.0599   -3.3135    2.1765 C   0  0  0  0  0  0  0  0  0  0  0  0
    1.9097   -4.3198    1.9188 C   0  0  0  0  0  0  0  0  0  0  0  0
    0.7404   -3.4832    1.3280 C   0  0  0  0  0  0  0  0  0  0  0  0
    1.7383   -1.8151    0.3168 H   0  0  0  0  0  0  0  0  0  0  0  0
    1.8755   -1.9396    3.3951 H   0  0  0  0  0  0  0  0  0  0  0  0
    2.9945   -1.0816    2.2776 H   0  0  0  0  0  0  0  0  0  0  0  0
    3.7106   -3.2399    1.2794 H   0  0  0  0  0  0  0  0  0  0  0  0
    3.7080   -3.6033    3.0261 H   0  0  0  0  0  0  0  0  0  0  0  0
    1.5974   -4.7944    2.8713 H   0  0  0  0  0  0  0  0  0  0  0  0
    2.2236   -5.1404    1.2451 H   0  0  0  0  0  0  0  0  0  0  0  0
   -0.1592   -3.5424    1.9743 H   0  0  0  0  0  0  0  0  0  0  0  0
    0.4268   -3.8022    0.3159 H   0  0  0  0  0  0  0  0  0  0  0  0
  1  2  1  0  0  0  0
  1  7  1  0  0  0  0
  2  3  1  0  0  0  0
  2  4  1  0  0  0  0
  4  5  1  0  0  0  0
  6  4  1  0  0  0  0
  7  8  1  0  0  0  0
  7  4  1  0  0  0  0
  8  2  1  0  0  0  0
  8  9  1  0  0  0  0
 10  8  1  0  0  0  0
  7 11  1  0  0  0  0
  7 12  1  0  0  0  0
 13 14  1  0  0  0  0
 13 17  1  0  0  0  0
 14 15  1  0  0  0  0
 14 18  1  0  0  0  0
 15 16  2  0  0  0  0
 15 39  1  0  0  0  0
 16 17  1  0  0  0  0
 16 38  1  0  0  0  0
 17 40  1  0  0  0  0
 18 21  2  0  0  0  0
 18 20  1  0  0  0  0
 19 22  2  0  0  0  0
 19 23  1  0  0  0  0
 19 34  1  0  0  0  0
 20 23  2  0  0  0  0
 20 30  1  0  0  0  0
 21 22  1  0  0  0  0
 21 26  1  0  0  0  0
 22 24  1  0  0  0  0
 23 25  1  0  0  0  0
 26 27  1  0  0  0  0
 26 28  1  0  0  0  0
 26 29  1  0  0  0  0
 30 31  1  0  0  0  0
 30 32  1  0  0  0  0
 30 33  1  0  0  0  0
 34 35  1  0  0  0  0
 34 36  1  0  0  0  0
 34 37  1  0  0  0  0
 40 45  1  0  0  0  0
 40 41  1  0  0  0  0
 40 44  1  0  0  0  0
 41 46  1  0  0  0  0
 41 47  1  0  0  0  0
 41 42  1  0  0  0  0
 42 48  1  0  0  0  0
 42 49  1  0  0  0  0
 42 43  1  0  0  0  0
 43 50  1  0  0  0  0
 43 51  1  0  0  0  0
 43 44  1  0  0  0  0
 44 52  1  0  0  0  0
 44 53  1  0  0  0  0
  7 13  1  0  0  0  0
M  END
>  <DFT-ENERGY>
-1902.19976669

$$$$
