
  CDK     08132414403D

 53 56  0  0  0  0  0  0  0  0999 V2000
    1.3169   -1.0110    0.0772 Ru  0  0  0  0  0  0  0  0  0  0  0  0
    2.7649   -0.8841   -1.2259 C   0  0  0  0  0  0  0  0  0  0  0  0
    2.4911   -1.1886   -2.2527 H   0  0  0  0  0  0  0  0  0  0  0  0
    3.2373   -2.0968   -0.3237 C   0  0  0  0  0  0  0  0  0  0  0  0
    3.2596   -2.9922   -0.9710 H   0  0  0  0  0  0  0  0  0  0  0  0
    2.3424   -2.4519    0.9296 C   0  0  0  0  0  0  0  0  0  0  0  0
    2.8281   -2.2017    1.8899 H   0  0  0  0  0  0  0  0  0  0  0  0
    1.8863   -3.4563    0.8595 H   0  0  0  0  0  0  0  0  0  0  0  0
    4.2199   -1.7985    0.0854 H   0  0  0  0  0  0  0  0  0  0  0  0
    3.4188    0.0025   -1.1396 H   0  0  0  0  0  0  0  0  0  0  0  0
    0.1801   -2.6358   -1.2313 Cl  0  0  0  0  0  0  0  0  0  0  0  0
    2.4904    0.5183    1.5170 Cl  0  0  0  0  0  0  0  0  0  0  0  0
   -0.3504    0.0424    0.4271 C   0  0  0  0  0  0  0  0  0  0  0  0
   -0.9286    0.9533   -0.4113 N   0  0  0  0  0  0  0  0  0  0  0  0
   -2.0346    1.5422    0.2057 C   0  0  0  0  0  0  0  0  0  0  0  0
   -2.1443    0.9730    1.4465 C   0  0  0  0  0  0  0  0  0  0  0  0
   -1.1001    0.0545    1.5627 N   0  0  0  0  0  0  0  0  0  0  0  0
   -0.4188    1.2415   -1.7296 C   0  0  0  0  0  0  0  0  0  0  0  0
    0.6466    1.7142   -4.2727 C   0  0  0  0  0  0  0  0  0  0  0  0
    0.6174    2.1909   -1.8598 C   0  0  0  0  0  0  0  0  0  0  0  0
   -0.9781    0.5603   -2.8333 C   0  0  0  0  0  0  0  0  0  0  0  0
   -0.4211    0.8144   -4.0967 C   0  0  0  0  0  0  0  0  0  0  0  0
    1.1387    2.4006   -3.1498 C   0  0  0  0  0  0  0  0  0  0  0  0
   -0.8361    0.2874   -4.9697 H   0  0  0  0  0  0  0  0  0  0  0  0
    1.9506    3.1334   -3.2759 H   0  0  0  0  0  0  0  0  0  0  0  0
   -2.1099   -0.4136   -2.6575 C   0  0  0  0  0  0  0  0  0  0  0  0
   -2.5089   -0.7323   -3.6384 H   0  0  0  0  0  0  0  0  0  0  0  0
   -2.9416    0.0204   -2.0665 H   0  0  0  0  0  0  0  0  0  0  0  0
   -1.7480   -1.3148   -2.1167 H   0  0  0  0  0  0  0  0  0  0  0  0
    1.1351    2.9594   -0.6752 C   0  0  0  0  0  0  0  0  0  0  0  0
    0.3070    3.4179   -0.0969 H   0  0  0  0  0  0  0  0  0  0  0  0
    1.8162    3.7671   -1.0023 H   0  0  0  0  0  0  0  0  0  0  0  0
    1.6864    2.3004    0.0315 H   0  0  0  0  0  0  0  0  0  0  0  0
    1.2473    1.9292   -5.6391 C   0  0  0  0  0  0  0  0  0  0  0  0
    1.8737    2.8411   -5.6718 H   0  0  0  0  0  0  0  0  0  0  0  0
    0.4638    2.0177   -6.4181 H   0  0  0  0  0  0  0  0  0  0  0  0
    1.8913    1.0708   -5.9259 H   0  0  0  0  0  0  0  0  0  0  0  0
   -2.8677    1.1405    2.2464 H   0  0  0  0  0  0  0  0  0  0  0  0
   -2.6312    2.3045   -0.2990 H   0  0  0  0  0  0  0  0  0  0  0  0
   -0.7616   -0.7455    2.7413 C   0  0  0  0  0  0  0  0  0  0  0  0
   -0.3360    0.0825    3.9629 C   0  0  0  0  0  0  0  0  0  0  0  0
   -0.4305   -0.9550    5.0867 C   0  0  0  0  0  0  0  0  0  0  0  0
   -1.7485   -1.7042    4.7850 C   0  0  0  0  0  0  0  0  0  0  0  0
   -1.9000   -1.6720    3.2390 C   0  0  0  0  0  0  0  0  0  0  0  0
    0.1087   -1.3554    2.4193 H   0  0  0  0  0  0  0  0  0  0  0  0
   -1.0663    0.9043    4.1321 H   0  0  0  0  0  0  0  0  0  0  0  0
    0.6659    0.5291    3.8166 H   0  0  0  0  0  0  0  0  0  0  0  0
    0.4323   -1.6516    5.0156 H   0  0  0  0  0  0  0  0  0  0  0  0
   -0.4066   -0.5081    6.0993 H   0  0  0  0  0  0  0  0  0  0  0  0
   -2.5981   -1.1718    5.2602 H   0  0  0  0  0  0  0  0  0  0  0  0
   -1.7518   -2.7343    5.1906 H   0  0  0  0  0  0  0  0  0  0  0  0
   -2.8856   -1.2649    2.9364 H   0  0  0  0  0  0  0  0  0  0  0  0
   -1.8186   -2.6730    2.7733 H   0  0  0  0  0  0  0  0  0  0  0  0
  2  4  1  0  0  0  0
  2  1  1  0  0  0  0
  2  3  1  0  0  0  0
  4  6  1  0  0  0  0
  4  5  1  0  0  0  0
  6  1  1  0  0  0  0
  6  8  1  0  0  0  0
  7  6  1  0  0  0  0
  9  4  1  0  0  0  0
 10  2  1  0  0  0  0
  1 11  1  0  0  0  0
  1 12  1  0  0  0  0
 13 14  1  0  0  0  0
 13 17  1  0  0  0  0
 14 15  1  0  0  0  0
 14 18  1  0  0  0  0
 15 16  2  0  0  0  0
 15 39  1  0  0  0  0
 16 17  1  0  0  0  0
 16 38  1  0  0  0  0
 17 40  1  0  0  0  0
 18 21  2  0  0  0  0
 18 20  1  0  0  0  0
 19 22  2  0  0  0  0
 19 23  1  0  0  0  0
 19 34  1  0  0  0  0
 20 23  2  0  0  0  0
 20 30  1  0  0  0  0
 21 22  1  0  0  0  0
 21 26  1  0  0  0  0
 22 24  1  0  0  0  0
 23 25  1  0  0  0  0
 26 27  1  0  0  0  0
 26 28  1  0  0  0  0
 26 29  1  0  0  0  0
 30 31  1  0  0  0  0
 30 32  1  0  0  0  0
 30 33  1  0  0  0  0
 34 35  1  0  0  0  0
 34 36  1  0  0  0  0
 34 37  1  0  0  0  0
 40 45  1  0  0  0  0
 40 41  1  0  0  0  0
 40 44  1  0  0  0  0
 41 46  1  0  0  0  0
 41 47  1  0  0  0  0
 41 42  1  0  0  0  0
 42 48  1  0  0  0  0
 42 49  1  0  0  0  0
 42 43  1  0  0  0  0
 43 50  1  0  0  0  0
 43 51  1  0  0  0  0
 43 44  1  0  0  0  0
 44 52  1  0  0  0  0
 44 53  1  0  0  0  0
  1 13  1  0  0  0  0
M  END
>  <DFT-ENERGY>
-1902.23573415

$$$$
