
  CDK     08132406083D

 59 62  0  0  0  0  0  0  0  0999 V2000
   -0.5005    3.6839   -2.4436 C   0  0  0  0  0  0  0  0  0  0  0  0
    0.5280    3.4429   -2.7681 H   0  0  0  0  0  0  0  0  0  0  0  0
   -0.7067    4.7577   -2.6512 H   0  0  0  0  0  0  0  0  0  0  0  0
   -1.2061    3.0960   -3.0615 H   0  0  0  0  0  0  0  0  0  0  0  0
   -0.6950    3.4296   -0.9647 C   0  0  0  0  0  0  0  0  0  0  0  0
   -1.7289    3.5352   -0.5848 H   0  0  0  0  0  0  0  0  0  0  0  0
    0.3176    3.7441   -0.0207 C   0  0  0  0  0  0  0  0  0  0  0  0
    1.3255    3.9226   -0.4365 H   0  0  0  0  0  0  0  0  0  0  0  0
   -0.0262    4.4135    1.2898 C   0  0  0  0  0  0  0  0  0  0  0  0
    0.8143    4.4055    2.0089 H   0  0  0  0  0  0  0  0  0  0  0  0
   -0.2789    5.4757    1.0819 H   0  0  0  0  0  0  0  0  0  0  0  0
   -0.9107    3.9324    1.7520 H   0  0  0  0  0  0  0  0  0  0  0  0
    1.1069    1.8129    0.9958 C   0  0  0  0  0  0  0  0  0  0  0  0
    0.8181    2.0209    2.0489 H   0  0  0  0  0  0  0  0  0  0  0  0
    2.1934    1.8481    0.7574 H   0  0  0  0  0  0  0  0  0  0  0  0
   -0.1361    1.3939   -0.2926 Ru  0  0  0  0  0  0  0  0  0  0  0  0
   -2.0141    1.5405    1.2168 Cl  0  0  0  0  0  0  0  0  0  0  0  0
    1.6403    1.2379   -1.9138 Cl  0  0  0  0  0  0  0  0  0  0  0  0
   -0.3402   -0.6024   -0.2108 C   0  0  0  0  0  0  0  0  0  0  0  0
    0.4244   -1.5144    0.4764 N   0  0  0  0  0  0  0  0  0  0  0  0
   -0.1126   -2.7976    0.3538 C   0  0  0  0  0  0  0  0  0  0  0  0
   -1.2266   -2.6877   -0.4304 C   0  0  0  0  0  0  0  0  0  0  0  0
   -1.3490   -1.3410   -0.7728 N   0  0  0  0  0  0  0  0  0  0  0  0
    1.5743   -1.1952    1.2787 C   0  0  0  0  0  0  0  0  0  0  0  0
    3.8000   -0.5259    2.8396 C   0  0  0  0  0  0  0  0  0  0  0  0
    2.8595   -1.3079    0.7056 C   0  0  0  0  0  0  0  0  0  0  0  0
    1.3667   -0.8032    2.6187 C   0  0  0  0  0  0  0  0  0  0  0  0
    2.5032   -0.4650    3.3772 C   0  0  0  0  0  0  0  0  0  0  0  0
    3.9574   -0.9617    1.5102 C   0  0  0  0  0  0  0  0  0  0  0  0
    2.3644   -0.1506    4.4233 H   0  0  0  0  0  0  0  0  0  0  0  0
    4.9682   -1.0342    1.0798 H   0  0  0  0  0  0  0  0  0  0  0  0
   -0.0162   -0.7519    3.2085 C   0  0  0  0  0  0  0  0  0  0  0  0
    0.0240   -0.4832    4.2806 H   0  0  0  0  0  0  0  0  0  0  0  0
   -0.5278   -1.7326    3.1183 H   0  0  0  0  0  0  0  0  0  0  0  0
   -0.6606   -0.0135    2.6823 H   0  0  0  0  0  0  0  0  0  0  0  0
    3.0371   -1.7565   -0.7179 C   0  0  0  0  0  0  0  0  0  0  0  0
    2.5061   -2.7094   -0.9180 H   0  0  0  0  0  0  0  0  0  0  0  0
    4.1079   -1.8969   -0.9562 H   0  0  0  0  0  0  0  0  0  0  0  0
    2.6178   -0.9901   -1.4060 H   0  0  0  0  0  0  0  0  0  0  0  0
    5.0027   -0.1346    3.6615 C   0  0  0  0  0  0  0  0  0  0  0  0
    5.7927   -0.9117    3.6178 H   0  0  0  0  0  0  0  0  0  0  0  0
    4.7369    0.0269    4.7236 H   0  0  0  0  0  0  0  0  0  0  0  0
    5.4555    0.8050    3.2805 H   0  0  0  0  0  0  0  0  0  0  0  0
   -1.9261   -3.4499   -0.7744 H   0  0  0  0  0  0  0  0  0  0  0  0
    0.3568   -3.6605    0.8295 H   0  0  0  0  0  0  0  0  0  0  0  0
   -2.4866   -0.7080   -1.4763 C   0  0  0  0  0  0  0  0  0  0  0  0
   -1.9796    0.3535   -2.4616 C   0  0  0  0  0  0  0  0  0  0  0  0
   -1.4744   -0.4382   -3.6881 C   0  0  0  0  0  0  0  0  0  0  0  0
   -2.2162   -1.8056   -3.6308 C   0  0  0  0  0  0  0  0  0  0  0  0
   -3.1801   -1.6907   -2.4294 C   0  0  0  0  0  0  0  0  0  0  0  0
   -3.1498   -0.2776   -0.7006 H   0  0  0  0  0  0  0  0  0  0  0  0
   -1.1606    1.0164   -2.0849 H   0  0  0  0  0  0  0  0  0  0  0  0
   -2.8265    1.0251   -2.7046 H   0  0  0  0  0  0  0  0  0  0  0  0
   -1.6717    0.1127   -4.6274 H   0  0  0  0  0  0  0  0  0  0  0  0
   -0.3767   -0.5682   -3.6161 H   0  0  0  0  0  0  0  0  0  0  0  0
   -1.4938   -2.6306   -3.4662 H   0  0  0  0  0  0  0  0  0  0  0  0
   -2.7592   -2.0387   -4.5670 H   0  0  0  0  0  0  0  0  0  0  0  0
   -3.4528   -2.6592   -1.9676 H   0  0  0  0  0  0  0  0  0  0  0  0
   -4.1334   -1.2152   -2.7377 H   0  0  0  0  0  0  0  0  0  0  0  0
  1  2  1  0  0  0  0
  1  5  1  0  0  0  0
  3  1  1  0  0  0  0
  4  1  1  0  0  0  0
  5  6  1  0  0  0  0
  5 16  1  0  0  0  0
  5  7  1  0  0  0  0
  7  9  1  0  0  0  0
  7  8  1  0  0  0  0
  9 10  1  0  0  0  0
 11  9  1  0  0  0  0
 12  9  1  0  0  0  0
 13 14  1  0  0  0  0
 13 15  1  0  0  0  0
 13  7  1  0  0  0  0
 16 13  1  0  0  0  0
 16 17  1  0  0  0  0
 16 18  1  0  0  0  0
 19 20  1  0  0  0  0
 19 23  1  0  0  0  0
 20 21  1  0  0  0  0
 20 24  1  0  0  0  0
 21 22  2  0  0  0  0
 21 45  1  0  0  0  0
 22 23  1  0  0  0  0
 22 44  1  0  0  0  0
 23 46  1  0  0  0  0
 24 27  2  0  0  0  0
 24 26  1  0  0  0  0
 25 28  2  0  0  0  0
 25 29  1  0  0  0  0
 25 40  1  0  0  0  0
 26 29  2  0  0  0  0
 26 36  1  0  0  0  0
 27 28  1  0  0  0  0
 27 32  1  0  0  0  0
 28 30  1  0  0  0  0
 29 31  1  0  0  0  0
 32 33  1  0  0  0  0
 32 34  1  0  0  0  0
 32 35  1  0  0  0  0
 36 37  1  0  0  0  0
 36 38  1  0  0  0  0
 36 39  1  0  0  0  0
 40 41  1  0  0  0  0
 40 42  1  0  0  0  0
 40 43  1  0  0  0  0
 46 51  1  0  0  0  0
 46 47  1  0  0  0  0
 46 50  1  0  0  0  0
 47 52  1  0  0  0  0
 47 53  1  0  0  0  0
 47 48  1  0  0  0  0
 48 54  1  0  0  0  0
 48 55  1  0  0  0  0
 48 49  1  0  0  0  0
 49 56  1  0  0  0  0
 49 57  1  0  0  0  0
 49 50  1  0  0  0  0
 50 58  1  0  0  0  0
 50 59  1  0  0  0  0
 16 19  1  0  0  0  0
M  END
>  <DFT-ENERGY>
-1980.74570847

$$$$
