
  CDK     08142400313D

 78 82  0  0  0  0  0  0  0  0999 V2000
   -3.6292   -2.6013   -0.1895 C   0  0  0  0  0  0  0  0  0  0  0  0
   -3.4361   -2.8778   -1.2406 H   0  0  0  0  0  0  0  0  0  0  0  0
   -4.5859   -3.0624    0.1448 H   0  0  0  0  0  0  0  0  0  0  0  0
   -2.8300   -3.0353    0.4392 H   0  0  0  0  0  0  0  0  0  0  0  0
   -3.7379   -1.1092   -0.0038 C   0  0  0  0  0  0  0  0  0  0  0  0
   -3.9385   -0.7691    1.0290 H   0  0  0  0  0  0  0  0  0  0  0  0
   -4.1953   -0.2288   -1.0176 C   0  0  0  0  0  0  0  0  0  0  0  0
   -4.2330   -0.6415   -2.0412 H   0  0  0  0  0  0  0  0  0  0  0  0
   -5.1213    0.9163   -0.6805 C   0  0  0  0  0  0  0  0  0  0  0  0
   -5.2130    1.6509   -1.5024 H   0  0  0  0  0  0  0  0  0  0  0  0
   -6.1339    0.5002   -0.4884 H   0  0  0  0  0  0  0  0  0  0  0  0
   -4.7834    1.4323    0.2399 H   0  0  0  0  0  0  0  0  0  0  0  0
   -2.4535    1.1812   -1.6208 C   0  0  0  0  0  0  0  0  0  0  0  0
   -2.8612    2.1439   -1.2468 H   0  0  0  0  0  0  0  0  0  0  0  0
   -2.4316    1.0372   -2.7227 H   0  0  0  0  0  0  0  0  0  0  0  0
   -1.8084   -0.1035   -0.4838 Ru  0  0  0  0  0  0  0  0  0  0  0  0
   -2.3257    1.2346    1.4455 Cl  0  0  0  0  0  0  0  0  0  0  0  0
   -1.4511   -1.5528   -2.3669 Cl  0  0  0  0  0  0  0  0  0  0  0  0
    1.0993    0.7080   -0.7859 N   0  0  0  0  0  0  0  0  0  0  0  0
    2.4920    0.2922   -0.3048 C   0  0  0  0  0  0  0  0  0  0  0  0
    2.1667   -1.0595    0.3466 C   0  0  0  0  0  0  0  0  0  0  0  0
    0.7083   -0.9517    0.8308 C   0  0  0  0  0  0  0  0  0  0  0  0
    0.1090    0.0068   -0.2117 C   0  0  0  0  0  0  0  0  0  0  0  0
    0.0050   -2.2988    0.9580 C   0  0  0  0  0  0  0  0  0  0  0  0
   -0.6089   -2.4452    2.2175 C   0  0  0  0  0  0  0  0  0  0  0  0
   -0.4840   -1.1870    3.0350 C   0  0  0  0  0  0  0  0  0  0  0  0
    0.5664   -0.3432    2.2784 C   0  0  0  0  0  0  0  0  0  0  0  0
    0.0003   -3.3534    0.0316 C   0  0  0  0  0  0  0  0  0  0  0  0
   -0.6029   -4.5691    0.3870 C   0  0  0  0  0  0  0  0  0  0  0  0
   -1.2034   -4.7236    1.6501 C   0  0  0  0  0  0  0  0  0  0  0  0
   -1.2201   -3.6598    2.5665 C   0  0  0  0  0  0  0  0  0  0  0  0
    2.8628   -1.3109    1.1688 H   0  0  0  0  0  0  0  0  0  0  0  0
    2.2373   -1.8564   -0.4197 H   0  0  0  0  0  0  0  0  0  0  0  0
    0.2694    0.7218    2.2515 H   0  0  0  0  0  0  0  0  0  0  0  0
    1.5542   -0.4174    2.7750 H   0  0  0  0  0  0  0  0  0  0  0  0
   -1.4539   -0.6465    3.0601 H   0  0  0  0  0  0  0  0  0  0  0  0
   -0.1858   -1.3903    4.0831 H   0  0  0  0  0  0  0  0  0  0  0  0
   -1.6933   -3.7804    3.5524 H   0  0  0  0  0  0  0  0  0  0  0  0
   -1.6693   -5.6832    1.9188 H   0  0  0  0  0  0  0  0  0  0  0  0
   -0.6120   -5.4021   -0.3302 H   0  0  0  0  0  0  0  0  0  0  0  0
    0.4444   -3.2255   -0.9646 H   0  0  0  0  0  0  0  0  0  0  0  0
    1.2250    2.8922   -3.8441 C   0  0  0  0  0  0  0  0  0  0  0  0
    1.1373    1.7232   -3.0635 C   0  0  0  0  0  0  0  0  0  0  0  0
    0.9663    1.8674   -1.6549 C   0  0  0  0  0  0  0  0  0  0  0  0
    0.7764    3.1568   -1.0732 C   0  0  0  0  0  0  0  0  0  0  0  0
    0.8788    4.2841   -1.9111 C   0  0  0  0  0  0  0  0  0  0  0  0
    1.1280    4.1642   -3.2788 C   0  0  0  0  0  0  0  0  0  0  0  0
    0.7487    5.2826   -1.4702 H   0  0  0  0  0  0  0  0  0  0  0  0
    1.3668    2.7919   -4.9294 H   0  0  0  0  0  0  0  0  0  0  0  0
    1.2184    5.0613   -3.9085 H   0  0  0  0  0  0  0  0  0  0  0  0
    1.1470    0.3937   -3.8136 C   0  0  0  0  0  0  0  0  0  0  0  0
   -0.0840    0.3140   -4.7383 C   0  0  0  0  0  0  0  0  0  0  0  0
    2.4102    0.1908   -4.6722 C   0  0  0  0  0  0  0  0  0  0  0  0
    1.0548   -0.4273   -3.0757 H   0  0  0  0  0  0  0  0  0  0  0  0
    2.4459    0.9225   -5.5056 H   0  0  0  0  0  0  0  0  0  0  0  0
    2.3969   -0.8197   -5.1289 H   0  0  0  0  0  0  0  0  0  0  0  0
    3.3503    0.2971   -4.1007 H   0  0  0  0  0  0  0  0  0  0  0  0
   -0.1346   -0.6840   -5.2172 H   0  0  0  0  0  0  0  0  0  0  0  0
   -0.0275    1.0802   -5.5393 H   0  0  0  0  0  0  0  0  0  0  0  0
   -1.0225    0.4492   -4.1737 H   0  0  0  0  0  0  0  0  0  0  0  0
    0.3840    3.4153    0.3793 C   0  0  0  0  0  0  0  0  0  0  0  0
    1.3942    4.2973    1.1363 C   0  0  0  0  0  0  0  0  0  0  0  0
   -0.9953    4.1012    0.4286 C   0  0  0  0  0  0  0  0  0  0  0  0
    0.2826    2.4428    0.8976 H   0  0  0  0  0  0  0  0  0  0  0  0
   -1.7558    3.5180   -0.1187 H   0  0  0  0  0  0  0  0  0  0  0  0
   -0.9462    5.1218   -0.0045 H   0  0  0  0  0  0  0  0  0  0  0  0
   -1.3411    4.1843    1.4773 H   0  0  0  0  0  0  0  0  0  0  0  0
    1.0722    4.4183    2.1904 H   0  0  0  0  0  0  0  0  0  0  0  0
    1.4456    5.3126    0.6916 H   0  0  0  0  0  0  0  0  0  0  0  0
    2.4190    3.8836    1.1381 H   0  0  0  0  0  0  0  0  0  0  0  0
    3.0488    1.3212    0.6843 C   0  0  0  0  0  0  0  0  0  0  0  0
    3.2293    2.2852    0.1725 H   0  0  0  0  0  0  0  0  0  0  0  0
    4.0198    0.9611    1.0779 H   0  0  0  0  0  0  0  0  0  0  0  0
    2.3706    1.4969    1.5375 H   0  0  0  0  0  0  0  0  0  0  0  0
    3.4763    0.1311   -1.4590 C   0  0  0  0  0  0  0  0  0  0  0  0
    3.1367   -0.6366   -2.1760 H   0  0  0  0  0  0  0  0  0  0  0  0
    4.4520   -0.1936   -1.0457 H   0  0  0  0  0  0  0  0  0  0  0  0
    3.6358    1.0847   -1.9978 H   0  0  0  0  0  0  0  0  0  0  0  0
  1  2  1  0  0  0  0
  1  5  1  0  0  0  0
  1  3  1  0  0  0  0
  1  4  1  0  0  0  0
  5  6  1  0  0  0  0
  5 16  1  0  0  0  0
  5  7  1  0  0  0  0
  7  9  1  0  0  0  0
  7  8  1  0  0  0  0
  9 10  1  0  0  0  0
  9 11  1  0  0  0  0
  9 12  1  0  0  0  0
 13 14  1  0  0  0  0
 13 15  1  0  0  0  0
  7 13  1  0  0  0  0
 13 16  1  0  0  0  0
 16 17  1  0  0  0  0
 16 18  1  0  0  0  0
 19 20  1  0  0  0  0
 20 21  1  0  0  0  0
 21 22  1  0  0  0  0
 21 32  1  0  0  0  0
 21 33  1  0  0  0  0
 22 23  1  0  0  0  0
 22 24  1  0  0  0  0
 22 27  1  0  0  0  0
 19 23  1  0  0  0  0
 24 25  2  0  0  0  0
 24 28  1  0  0  0  0
 25 26  1  0  0  0  0
 25 31  1  0  0  0  0
 26 27  1  0  0  0  0
 26 36  1  0  0  0  0
 26 37  1  0  0  0  0
 27 34  1  0  0  0  0
 27 35  1  0  0  0  0
 28 29  2  0  0  0  0
 28 41  1  0  0  0  0
 29 30  1  0  0  0  0
 29 40  1  0  0  0  0
 30 31  2  0  0  0  0
 30 39  1  0  0  0  0
 31 38  1  0  0  0  0
 42 43  2  0  0  0  0
 42 47  1  0  0  0  0
 42 49  1  0  0  0  0
 43 44  1  0  0  0  0
 44 45  2  0  0  0  0
 45 46  1  0  0  0  0
 46 47  2  0  0  0  0
 46 48  1  0  0  0  0
 47 50  1  0  0  0  0
 19 44  1  0  0  0  0
 51 52  1  0  0  0  0
 51 53  1  0  0  0  0
 51 54  1  0  0  0  0
 52 58  1  0  0  0  0
 52 59  1  0  0  0  0
 52 60  1  0  0  0  0
 53 55  1  0  0  0  0
 53 56  1  0  0  0  0
 53 57  1  0  0  0  0
 43 51  1  0  0  0  0
 61 62  1  0  0  0  0
 61 63  1  0  0  0  0
 61 64  1  0  0  0  0
 62 68  1  0  0  0  0
 62 69  1  0  0  0  0
 62 70  1  0  0  0  0
 63 65  1  0  0  0  0
 63 66  1  0  0  0  0
 63 67  1  0  0  0  0
 45 61  1  0  0  0  0
 71 72  1  0  0  0  0
 71 73  1  0  0  0  0
 71 74  1  0  0  0  0
 20 71  1  0  0  0  0
 75 76  1  0  0  0  0
 75 77  1  0  0  0  0
 75 78  1  0  0  0  0
 20 75  1  0  0  0  0
 16 23  1  0  0  0  0
M  END
>  <DFT-ENERGY>
-2275.21417408

$$$$
