
  CDK     08142407343D

 72 77  0  0  0  0  0  0  0  0999 V2000
    1.4457   -1.0668   -2.8676 H   0  0  0  0  0  0  0  0  0  0  0  0
    2.6754   -1.0462   -2.9079 C   0  0  0  0  0  0  0  0  0  0  0  0
    2.6439   -0.8109   -3.9917 H   0  0  0  0  0  0  0  0  0  0  0  0
    2.9466   -2.4099   -2.3895 C   0  0  0  0  0  0  0  0  0  0  0  0
    3.8813   -2.5977   -1.8415 H   0  0  0  0  0  0  0  0  0  0  0  0
    2.5583   -3.2477   -2.9932 H   0  0  0  0  0  0  0  0  0  0  0  0
    1.5250   -1.4983   -1.1489 Ru  0  0  0  0  0  0  0  0  0  0  0  0
    2.8599   -0.0184   -1.8494 C   0  0  0  0  0  0  0  0  0  0  0  0
    3.8025   -0.0174   -1.2841 H   0  0  0  0  0  0  0  0  0  0  0  0
    2.4184    0.9743   -2.0467 H   0  0  0  0  0  0  0  0  0  0  0  0
    3.2600   -1.7449    0.5099 Cl  0  0  0  0  0  0  0  0  0  0  0  0
   -0.3518   -2.4121   -2.3440 Cl  0  0  0  0  0  0  0  0  0  0  0  0
   -0.3779   -0.9518    1.0364 N   0  0  0  0  0  0  0  0  0  0  0  0
   -1.4184   -1.5253    2.0111 C   0  0  0  0  0  0  0  0  0  0  0  0
   -1.2466   -3.0342    1.7578 C   0  0  0  0  0  0  0  0  0  0  0  0
    0.1689   -3.2295    1.1448 C   0  0  0  0  0  0  0  0  0  0  0  0
    0.4359   -1.8679    0.5094 C   0  0  0  0  0  0  0  0  0  0  0  0
    1.1696   -3.6945    2.2247 C   0  0  0  0  0  0  0  0  0  0  0  0
    1.2783   -5.1009    2.1786 C   0  0  0  0  0  0  0  0  0  0  0  0
    0.4678   -5.6617    1.0373 C   0  0  0  0  0  0  0  0  0  0  0  0
    0.2417   -4.4230    0.1539 C   0  0  0  0  0  0  0  0  0  0  0  0
    1.8519   -2.9773    3.2151 C   0  0  0  0  0  0  0  0  0  0  0  0
    2.6309   -3.6675    4.1578 C   0  0  0  0  0  0  0  0  0  0  0  0
    2.7309   -5.0674    4.1156 C   0  0  0  0  0  0  0  0  0  0  0  0
    2.0526   -5.7898    3.1213 C   0  0  0  0  0  0  0  0  0  0  0  0
   -1.9999   -3.3642    1.0151 H   0  0  0  0  0  0  0  0  0  0  0  0
   -1.3889   -3.6199    2.6842 H   0  0  0  0  0  0  0  0  0  0  0  0
    1.1254   -4.2642   -0.4969 H   0  0  0  0  0  0  0  0  0  0  0  0
   -0.6456   -4.4745   -0.5005 H   0  0  0  0  0  0  0  0  0  0  0  0
    0.9797   -6.4843    0.5003 H   0  0  0  0  0  0  0  0  0  0  0  0
   -0.4965   -6.0731    1.4123 H   0  0  0  0  0  0  0  0  0  0  0  0
    2.1354   -6.8861    3.0733 H   0  0  0  0  0  0  0  0  0  0  0  0
    3.3512   -5.5965    4.8536 H   0  0  0  0  0  0  0  0  0  0  0  0
    3.1796   -3.1001    4.9233 H   0  0  0  0  0  0  0  0  0  0  0  0
    1.8216   -1.8825    3.2447 H   0  0  0  0  0  0  0  0  0  0  0  0
    0.3329    2.6839    1.6336 C   0  0  0  0  0  0  0  0  0  0  0  0
    0.5182    1.2884    1.6380 C   0  0  0  0  0  0  0  0  0  0  0  0
   -0.3402    0.4934    0.8224 C   0  0  0  0  0  0  0  0  0  0  0  0
   -1.2539    1.1081   -0.0822 C   0  0  0  0  0  0  0  0  0  0  0  0
   -1.3851    2.5094   -0.0431 C   0  0  0  0  0  0  0  0  0  0  0  0
   -0.6326    3.2947    0.8319 C   0  0  0  0  0  0  0  0  0  0  0  0
   -2.0940    2.9911   -0.7312 H   0  0  0  0  0  0  0  0  0  0  0  0
    0.9804    3.3021    2.2716 H   0  0  0  0  0  0  0  0  0  0  0  0
   -0.7715    4.3852    0.8606 H   0  0  0  0  0  0  0  0  0  0  0  0
    1.7052    0.7463    2.4214 C   0  0  0  0  0  0  0  0  0  0  0  0
    3.0053    1.3253    1.8289 C   0  0  0  0  0  0  0  0  0  0  0  0
    1.6477    1.0426    3.9286 C   0  0  0  0  0  0  0  0  0  0  0  0
    1.7524   -0.3456    2.2596 H   0  0  0  0  0  0  0  0  0  0  0  0
    1.6643    2.1345    4.1250 H   0  0  0  0  0  0  0  0  0  0  0  0
    2.5345    0.6064    4.4322 H   0  0  0  0  0  0  0  0  0  0  0  0
    0.7439    0.6293    4.4131 H   0  0  0  0  0  0  0  0  0  0  0  0
    3.8840    0.8257    2.2821 H   0  0  0  0  0  0  0  0  0  0  0  0
    3.0830    2.4149    2.0248 H   0  0  0  0  0  0  0  0  0  0  0  0
    3.0523    1.1558    0.7380 H   0  0  0  0  0  0  0  0  0  0  0  0
   -1.9884    0.3704   -1.1941 C   0  0  0  0  0  0  0  0  0  0  0  0
   -3.4956    0.6668   -1.2578 C   0  0  0  0  0  0  0  0  0  0  0  0
   -1.3333    0.7566   -2.5366 C   0  0  0  0  0  0  0  0  0  0  0  0
   -1.8357   -0.7179   -1.0638 H   0  0  0  0  0  0  0  0  0  0  0  0
   -0.2379    0.5957   -2.4975 H   0  0  0  0  0  0  0  0  0  0  0  0
   -1.5200    1.8244   -2.7744 H   0  0  0  0  0  0  0  0  0  0  0  0
   -1.7365    0.1319   -3.3574 H   0  0  0  0  0  0  0  0  0  0  0  0
   -3.9650    0.0511   -2.0512 H   0  0  0  0  0  0  0  0  0  0  0  0
   -3.6926    1.7286   -1.5119 H   0  0  0  0  0  0  0  0  0  0  0  0
   -4.0150    0.4512   -0.3050 H   0  0  0  0  0  0  0  0  0  0  0  0
   -2.8287   -1.0632    1.6490 C   0  0  0  0  0  0  0  0  0  0  0  0
   -2.9436    0.0330    1.7520 H   0  0  0  0  0  0  0  0  0  0  0  0
   -3.5408   -1.5475    2.3467 H   0  0  0  0  0  0  0  0  0  0  0  0
   -3.1015   -1.3619    0.6214 H   0  0  0  0  0  0  0  0  0  0  0  0
   -1.1054   -1.0990    3.4471 C   0  0  0  0  0  0  0  0  0  0  0  0
   -0.1219   -1.4658    3.7867 H   0  0  0  0  0  0  0  0  0  0  0  0
   -1.8771   -1.5192    4.1218 H   0  0  0  0  0  0  0  0  0  0  0  0
   -1.1374    0.0034    3.5423 H   0  0  0  0  0  0  0  0  0  0  0  0
  1  2  1  0  0  0  0
  1  7  1  0  0  0  0
  2  3  1  0  0  0  0
  2  4  1  0  0  0  0
  4  5  1  0  0  0  0
  4  6  1  0  0  0  0
  7  8  1  0  0  0  0
  4  7  1  0  0  0  0
  2  8  1  0  0  0  0
  8  9  1  0  0  0  0
  8 10  1  0  0  0  0
  7 11  1  0  0  0  0
  7 12  1  0  0  0  0
 13 14  1  0  0  0  0
 14 15  1  0  0  0  0
 15 16  1  0  0  0  0
 15 26  1  0  0  0  0
 15 27  1  0  0  0  0
 16 17  1  0  0  0  0
 16 18  1  0  0  0  0
 16 21  1  0  0  0  0
 13 17  1  0  0  0  0
 18 19  2  0  0  0  0
 18 22  1  0  0  0  0
 19 20  1  0  0  0  0
 19 25  1  0  0  0  0
 20 21  1  0  0  0  0
 20 30  1  0  0  0  0
 20 31  1  0  0  0  0
 21 28  1  0  0  0  0
 21 29  1  0  0  0  0
 22 23  2  0  0  0  0
 22 35  1  0  0  0  0
 23 24  1  0  0  0  0
 23 34  1  0  0  0  0
 24 25  2  0  0  0  0
 24 33  1  0  0  0  0
 25 32  1  0  0  0  0
 36 37  2  0  0  0  0
 36 41  1  0  0  0  0
 36 43  1  0  0  0  0
 37 38  1  0  0  0  0
 38 39  2  0  0  0  0
 39 40  1  0  0  0  0
 40 41  2  0  0  0  0
 40 42  1  0  0  0  0
 41 44  1  0  0  0  0
 13 38  1  0  0  0  0
 45 46  1  0  0  0  0
 45 47  1  0  0  0  0
 45 48  1  0  0  0  0
 46 52  1  0  0  0  0
 46 53  1  0  0  0  0
 46 54  1  0  0  0  0
 47 49  1  0  0  0  0
 47 50  1  0  0  0  0
 47 51  1  0  0  0  0
 37 45  1  0  0  0  0
 55 56  1  0  0  0  0
 55 57  1  0  0  0  0
 55 58  1  0  0  0  0
 56 62  1  0  0  0  0
 56 63  1  0  0  0  0
 56 64  1  0  0  0  0
 57 59  1  0  0  0  0
 57 60  1  0  0  0  0
 57 61  1  0  0  0  0
 39 55  1  0  0  0  0
 65 66  1  0  0  0  0
 65 67  1  0  0  0  0
 65 68  1  0  0  0  0
 14 65  1  0  0  0  0
 69 70  1  0  0  0  0
 69 71  1  0  0  0  0
 69 72  1  0  0  0  0
 14 69  1  0  0  0  0
  7 17  1  0  0  0  0
M  END
>  <DFT-ENERGY>
-2196.65149905

$$$$
