
  CDK     08142420403D

 72 76  0  0  0  0  0  0  0  0999 V2000
    1.6822   -0.9851    0.7953 Ru  0  0  0  0  0  0  0  0  0  0  0  0
    3.4282   -0.9631   -0.1100 C   0  0  0  0  0  0  0  0  0  0  0  0
    3.4707   -1.5025   -1.0723 H   0  0  0  0  0  0  0  0  0  0  0  0
    3.7403   -1.8955    1.1368 C   0  0  0  0  0  0  0  0  0  0  0  0
    4.0561   -2.8700    0.7222 H   0  0  0  0  0  0  0  0  0  0  0  0
    2.5363   -2.1877    2.1065 C   0  0  0  0  0  0  0  0  0  0  0  0
    2.6480   -1.7440    3.1108 H   0  0  0  0  0  0  0  0  0  0  0  0
    2.1870   -3.2337    2.0734 H   0  0  0  0  0  0  0  0  0  0  0  0
    4.5140   -1.3757    1.7300 H   0  0  0  0  0  0  0  0  0  0  0  0
    3.9659    0.0002   -0.0688 H   0  0  0  0  0  0  0  0  0  0  0  0
    1.1252   -2.9441   -0.4566 Cl  0  0  0  0  0  0  0  0  0  0  0  0
    2.4445    0.8542    2.1261 Cl  0  0  0  0  0  0  0  0  0  0  0  0
   -0.6038    0.7778   -0.1019 N   0  0  0  0  0  0  0  0  0  0  0  0
   -2.0246    1.1562    0.3317 C   0  0  0  0  0  0  0  0  0  0  0  0
   -2.0725    0.5032    1.7226 C   0  0  0  0  0  0  0  0  0  0  0  0
   -1.1100   -0.6996    1.6632 C   0  0  0  0  0  0  0  0  0  0  0  0
   -0.0733   -0.1914    0.6488 C   0  0  0  0  0  0  0  0  0  0  0  0
   -0.5343   -1.1200    3.0109 C   0  0  0  0  0  0  0  0  0  0  0  0
   -0.6340   -2.5109    3.2020 C   0  0  0  0  0  0  0  0  0  0  0  0
   -1.2472   -3.1878    2.0056 C   0  0  0  0  0  0  0  0  0  0  0  0
   -1.7780   -2.0260    1.1362 C   0  0  0  0  0  0  0  0  0  0  0  0
    0.0298   -0.2972    3.9960 C   0  0  0  0  0  0  0  0  0  0  0  0
    0.5057   -0.8825    5.1785 C   0  0  0  0  0  0  0  0  0  0  0  0
    0.4147   -2.2731    5.3708 C   0  0  0  0  0  0  0  0  0  0  0  0
   -0.1557   -3.0938    4.3848 C   0  0  0  0  0  0  0  0  0  0  0  0
   -3.0965    0.2000    2.0105 H   0  0  0  0  0  0  0  0  0  0  0  0
   -1.7025    1.2265    2.4757 H   0  0  0  0  0  0  0  0  0  0  0  0
   -1.5588   -2.2032    0.0667 H   0  0  0  0  0  0  0  0  0  0  0  0
   -2.8750   -1.9195    1.2527 H   0  0  0  0  0  0  0  0  0  0  0  0
   -0.4727   -3.7542    1.4463 H   0  0  0  0  0  0  0  0  0  0  0  0
   -2.0484   -3.9011    2.2858 H   0  0  0  0  0  0  0  0  0  0  0  0
   -0.2285   -4.1810    4.5378 H   0  0  0  0  0  0  0  0  0  0  0  0
    0.7915   -2.7204    6.3026 H   0  0  0  0  0  0  0  0  0  0  0  0
    0.9603   -0.2496    5.9538 H   0  0  0  0  0  0  0  0  0  0  0  0
    0.1346    0.7836    3.8338 H   0  0  0  0  0  0  0  0  0  0  0  0
    0.8049    3.3217   -2.4740 C   0  0  0  0  0  0  0  0  0  0  0  0
    0.5488    2.6585   -1.2587 C   0  0  0  0  0  0  0  0  0  0  0  0
   -0.0589    1.3711   -1.3148 C   0  0  0  0  0  0  0  0  0  0  0  0
   -0.2705    0.7156   -2.5628 C   0  0  0  0  0  0  0  0  0  0  0  0
    0.0034    1.4361   -3.7415 C   0  0  0  0  0  0  0  0  0  0  0  0
    0.5024    2.7392   -3.7061 C   0  0  0  0  0  0  0  0  0  0  0  0
   -0.1704    0.9481   -4.7109 H   0  0  0  0  0  0  0  0  0  0  0  0
    1.2643    4.3197   -2.4443 H   0  0  0  0  0  0  0  0  0  0  0  0
    0.6908    3.2872   -4.6409 H   0  0  0  0  0  0  0  0  0  0  0  0
    1.0589    3.3158    0.0186 C   0  0  0  0  0  0  0  0  0  0  0  0
    2.6008    3.3377   -0.0271 C   0  0  0  0  0  0  0  0  0  0  0  0
    0.5426    4.7504    0.2260 C   0  0  0  0  0  0  0  0  0  0  0  0
    0.7679    2.6862    0.8825 H   0  0  0  0  0  0  0  0  0  0  0  0
    0.9196    5.4321   -0.5641 H   0  0  0  0  0  0  0  0  0  0  0  0
    0.9083    5.1448    1.1954 H   0  0  0  0  0  0  0  0  0  0  0  0
   -0.5614    4.8189    0.2222 H   0  0  0  0  0  0  0  0  0  0  0  0
    3.0071    3.7020    0.9368 H   0  0  0  0  0  0  0  0  0  0  0  0
    2.9594    4.0081   -0.8359 H   0  0  0  0  0  0  0  0  0  0  0  0
    3.0098    2.3252   -0.1946 H   0  0  0  0  0  0  0  0  0  0  0  0
   -0.6559   -0.7516   -2.7177 C   0  0  0  0  0  0  0  0  0  0  0  0
   -1.9212   -0.9748   -3.5633 C   0  0  0  0  0  0  0  0  0  0  0  0
    0.5263   -1.5039   -3.3614 C   0  0  0  0  0  0  0  0  0  0  0  0
   -0.8093   -1.1888   -1.7124 H   0  0  0  0  0  0  0  0  0  0  0  0
    1.4583   -1.3492   -2.7879 H   0  0  0  0  0  0  0  0  0  0  0  0
    0.6882   -1.1629   -4.4050 H   0  0  0  0  0  0  0  0  0  0  0  0
    0.3254   -2.5927   -3.3741 H   0  0  0  0  0  0  0  0  0  0  0  0
   -2.1519   -2.0580   -3.6160 H   0  0  0  0  0  0  0  0  0  0  0  0
   -1.7758   -0.6209   -4.6048 H   0  0  0  0  0  0  0  0  0  0  0  0
   -2.8091   -0.4564   -3.1560 H   0  0  0  0  0  0  0  0  0  0  0  0
   -3.0491    0.5757   -0.6482 C   0  0  0  0  0  0  0  0  0  0  0  0
   -2.9270    1.0326   -1.6486 H   0  0  0  0  0  0  0  0  0  0  0  0
   -4.0706    0.8119   -0.2903 H   0  0  0  0  0  0  0  0  0  0  0  0
   -2.9598   -0.5203   -0.7485 H   0  0  0  0  0  0  0  0  0  0  0  0
   -2.2040    2.6690    0.4156 C   0  0  0  0  0  0  0  0  0  0  0  0
   -1.5000    3.1187    1.1378 H   0  0  0  0  0  0  0  0  0  0  0  0
   -3.2348    2.8815    0.7627 H   0  0  0  0  0  0  0  0  0  0  0  0
   -2.0693    3.1545   -0.5700 H   0  0  0  0  0  0  0  0  0  0  0  0
  2  4  1  0  0  0  0
  2  1  1  0  0  0  0
  2  3  1  0  0  0  0
  4  6  1  0  0  0  0
  4  5  1  0  0  0  0
  6  1  1  0  0  0  0
  6  8  1  0  0  0  0
  7  6  1  0  0  0  0
  9  4  1  0  0  0  0
 10  2  1  0  0  0  0
  1 11  1  0  0  0  0
  1 12  1  0  0  0  0
 13 14  1  0  0  0  0
 14 15  1  0  0  0  0
 15 16  1  0  0  0  0
 15 26  1  0  0  0  0
 15 27  1  0  0  0  0
 16 17  1  0  0  0  0
 16 18  1  0  0  0  0
 16 21  1  0  0  0  0
 17 13  1  0  0  0  0
 18 19  2  0  0  0  0
 18 22  1  0  0  0  0
 19 20  1  0  0  0  0
 19 25  1  0  0  0  0
 20 21  1  0  0  0  0
 20 30  1  0  0  0  0
 20 31  1  0  0  0  0
 21 28  1  0  0  0  0
 21 29  1  0  0  0  0
 22 23  2  0  0  0  0
 22 35  1  0  0  0  0
 23 24  1  0  0  0  0
 23 34  1  0  0  0  0
 24 25  2  0  0  0  0
 24 33  1  0  0  0  0
 25 32  1  0  0  0  0
 36 37  2  0  0  0  0
 36 41  1  0  0  0  0
 36 43  1  0  0  0  0
 37 38  1  0  0  0  0
 38 39  2  0  0  0  0
 39 40  1  0  0  0  0
 40 41  2  0  0  0  0
 40 42  1  0  0  0  0
 41 44  1  0  0  0  0
 13 38  1  0  0  0  0
 45 46  1  0  0  0  0
 45 47  1  0  0  0  0
 45 48  1  0  0  0  0
 46 52  1  0  0  0  0
 46 53  1  0  0  0  0
 46 54  1  0  0  0  0
 47 49  1  0  0  0  0
 47 50  1  0  0  0  0
 47 51  1  0  0  0  0
 37 45  1  0  0  0  0
 55 56  1  0  0  0  0
 55 57  1  0  0  0  0
 55 58  1  0  0  0  0
 56 62  1  0  0  0  0
 56 63  1  0  0  0  0
 56 64  1  0  0  0  0
 57 59  1  0  0  0  0
 57 60  1  0  0  0  0
 57 61  1  0  0  0  0
 39 55  1  0  0  0  0
 65 66  1  0  0  0  0
 65 67  1  0  0  0  0
 65 68  1  0  0  0  0
 14 65  1  0  0  0  0
 69 70  1  0  0  0  0
 69 71  1  0  0  0  0
 69 72  1  0  0  0  0
 14 69  1  0  0  0  0
  1 17  1  0  0  0  0
M  END
>  <DFT-ENERGY>
-2196.70715695

$$$$
