
  CDK     08152401453D

 73 75  0  0  0  0  0  0  0  0999 V2000
    2.0033    0.6868   -0.9009 Ru  0  0  0  0  0  0  0  0  0  0  0  0
    3.4767    0.9306   -2.2043 C   0  0  0  0  0  0  0  0  0  0  0  0
    3.1591    1.3301   -3.1830 H   0  0  0  0  0  0  0  0  0  0  0  0
    3.8189    2.0557   -1.1569 C   0  0  0  0  0  0  0  0  0  0  0  0
    3.7603    3.0210   -1.6914 H   0  0  0  0  0  0  0  0  0  0  0  0
    2.8462    2.1630    0.0849 C   0  0  0  0  0  0  0  0  0  0  0  0
    3.3167    1.8680    1.0394 H   0  0  0  0  0  0  0  0  0  0  0  0
    2.2739    3.1050    0.1128 H   0  0  0  0  0  0  0  0  0  0  0  0
    4.8214    1.8199   -0.7551 H   0  0  0  0  0  0  0  0  0  0  0  0
    4.2224    0.1171   -2.2292 H   0  0  0  0  0  0  0  0  0  0  0  0
    0.7592    2.2570   -2.2492 Cl  0  0  0  0  0  0  0  0  0  0  0  0
    3.4778   -0.8168    0.2178 Cl  0  0  0  0  0  0  0  0  0  0  0  0
    0.3377   -0.3380   -0.7811 C   0  0  0  0  0  0  0  0  0  0  0  0
   -1.3735   -1.8102   -1.9855 C   0  0  0  0  0  0  0  0  0  0  0  0
   -2.0596   -0.3854   -0.0325 C   0  0  0  0  0  0  0  0  0  0  0  0
   -2.1011   -1.7934   -0.6485 C   0  0  0  0  0  0  0  0  0  0  0  0
   -0.5837   -0.0078    0.1402 N   0  0  0  0  0  0  0  0  0  0  0  0
    0.1180   -1.4726   -1.8061 C   0  0  0  0  0  0  0  0  0  0  0  0
   -1.8367   -1.0828   -2.6805 H   0  0  0  0  0  0  0  0  0  0  0  0
   -1.6481   -2.5258    0.0508 H   0  0  0  0  0  0  0  0  0  0  0  0
   -1.4724   -2.7999   -2.4680 H   0  0  0  0  0  0  0  0  0  0  0  0
   -3.1650   -2.0812   -0.7709 H   0  0  0  0  0  0  0  0  0  0  0  0
    0.7431   -1.0373   -3.1591 C   0  0  0  0  0  0  0  0  0  0  0  0
    0.8950   -2.6983   -1.1930 C   0  0  0  0  0  0  0  0  0  0  0  0
   -2.7939   -0.3577    1.3091 C   0  0  0  0  0  0  0  0  0  0  0  0
   -3.8691   -0.5412    1.1146 H   0  0  0  0  0  0  0  0  0  0  0  0
   -2.7018    0.6217    1.8117 H   0  0  0  0  0  0  0  0  0  0  0  0
   -2.4349   -1.1319    2.0084 H   0  0  0  0  0  0  0  0  0  0  0  0
   -2.7439    0.5967   -1.0140 C   0  0  0  0  0  0  0  0  0  0  0  0
   -3.6335    0.1021   -1.4540 H   0  0  0  0  0  0  0  0  0  0  0  0
   -2.0667    0.9011   -1.8336 H   0  0  0  0  0  0  0  0  0  0  0  0
   -3.0954    1.5076   -0.5055 H   0  0  0  0  0  0  0  0  0  0  0  0
   -0.1440    0.7701    1.3125 C   0  0  0  0  0  0  0  0  0  0  0  0
    0.6070    2.1287    3.6703 C   0  0  0  0  0  0  0  0  0  0  0  0
   -0.4250    2.1638    1.4467 C   0  0  0  0  0  0  0  0  0  0  0  0
    0.5383    0.0607    2.3568 C   0  0  0  0  0  0  0  0  0  0  0  0
    0.8910    0.7708    3.5182 C   0  0  0  0  0  0  0  0  0  0  0  0
   -0.0325    2.8083    2.6370 C   0  0  0  0  0  0  0  0  0  0  0  0
    1.4104    0.2392    4.3244 H   0  0  0  0  0  0  0  0  0  0  0  0
   -0.2462    3.8803    2.7471 H   0  0  0  0  0  0  0  0  0  0  0  0
    0.8928    2.6563    4.5919 H   0  0  0  0  0  0  0  0  0  0  0  0
    0.9404   -1.4128    2.2916 C   0  0  0  0  0  0  0  0  0  0  0  0
    1.2492   -1.6067    1.2488 H   0  0  0  0  0  0  0  0  0  0  0  0
   -1.1535    3.0399    0.4313 C   0  0  0  0  0  0  0  0  0  0  0  0
   -1.2342    2.4782   -0.5141 H   0  0  0  0  0  0  0  0  0  0  0  0
   -2.5549    3.4227    0.9508 C   0  0  0  0  0  0  0  0  0  0  0  0
   -3.1183    3.9743    0.1705 H   0  0  0  0  0  0  0  0  0  0  0  0
   -2.4752    4.0862    1.8366 H   0  0  0  0  0  0  0  0  0  0  0  0
   -3.1613    2.5484    1.2571 H   0  0  0  0  0  0  0  0  0  0  0  0
   -0.3889    4.3343    0.1005 C   0  0  0  0  0  0  0  0  0  0  0  0
   -0.2845    4.9971    0.9836 H   0  0  0  0  0  0  0  0  0  0  0  0
   -0.9451    4.8993   -0.6744 H   0  0  0  0  0  0  0  0  0  0  0  0
    0.6094    4.1163   -0.3172 H   0  0  0  0  0  0  0  0  0  0  0  0
   -0.1928   -2.3810    2.6704 C   0  0  0  0  0  0  0  0  0  0  0  0
   -0.6106   -2.1388    3.6698 H   0  0  0  0  0  0  0  0  0  0  0  0
    0.1982   -3.4183    2.7099 H   0  0  0  0  0  0  0  0  0  0  0  0
   -1.0227   -2.3733    1.9420 H   0  0  0  0  0  0  0  0  0  0  0  0
    2.1715   -1.7402    3.1528 C   0  0  0  0  0  0  0  0  0  0  0  0
    2.9940   -1.0240    2.9743 H   0  0  0  0  0  0  0  0  0  0  0  0
    2.5441   -2.7469    2.8786 H   0  0  0  0  0  0  0  0  0  0  0  0
    1.9304   -1.7639    4.2364 H   0  0  0  0  0  0  0  0  0  0  0  0
    1.9742   -2.5377   -1.3833 H   0  0  0  0  0  0  0  0  0  0  0  0
    0.8039   -2.6680   -0.0905 H   0  0  0  0  0  0  0  0  0  0  0  0
    0.4667   -4.1002   -1.6401 C   0  0  0  0  0  0  0  0  0  0  0  0
    1.1717   -4.8426   -1.2144 H   0  0  0  0  0  0  0  0  0  0  0  0
    0.4697   -4.2329   -2.7381 H   0  0  0  0  0  0  0  0  0  0  0  0
   -0.5439   -4.3715   -1.2727 H   0  0  0  0  0  0  0  0  0  0  0  0
    0.2650   -0.0849   -3.4639 H   0  0  0  0  0  0  0  0  0  0  0  0
    1.8105   -0.7831   -2.9777 H   0  0  0  0  0  0  0  0  0  0  0  0
    0.6772   -2.0458   -4.3079 C   0  0  0  0  0  0  0  0  0  0  0  0
    1.3043   -2.9399   -4.1248 H   0  0  0  0  0  0  0  0  0  0  0  0
    1.0494   -1.5718   -5.2378 H   0  0  0  0  0  0  0  0  0  0  0  0
   -0.3575   -2.3900   -4.5101 H   0  0  0  0  0  0  0  0  0  0  0  0
  2  4  1  0  0  0  0
  2  1  1  0  0  0  0
  2  3  1  0  0  0  0
  4  6  1  0  0  0  0
  4  5  1  0  0  0  0
  6  1  1  0  0  0  0
  6  8  1  0  0  0  0
  7  6  1  0  0  0  0
  9  4  1  0  0  0  0
 10  2  1  0  0  0  0
  1 11  1  0  0  0  0
  1 12  1  0  0  0  0
 13 17  1  0  0  0  0
 13 18  1  0  0  0  0
 14 19  1  0  0  0  0
 14 21  1  0  0  0  0
 14 16  1  0  0  0  0
 14 18  1  0  0  0  0
 15 17  1  0  0  0  0
 15 16  1  0  0  0  0
 16 20  1  0  0  0  0
 16 22  1  0  0  0  0
 18 23  1  0  0  0  0
 18 24  1  0  0  0  0
 25 26  1  0  0  0  0
 25 27  1  0  0  0  0
 25 28  1  0  0  0  0
 15 25  1  0  0  0  0
 29 30  1  0  0  0  0
 29 31  1  0  0  0  0
 29 32  1  0  0  0  0
 15 29  1  0  0  0  0
 33 36  2  0  0  0  0
 36 37  1  0  0  0  0
 34 37  2  0  0  0  0
 34 38  1  0  0  0  0
 35 38  2  0  0  0  0
 33 35  1  0  0  0  0
 37 39  1  0  0  0  0
 38 40  1  0  0  0  0
 34 41  1  0  0  0  0
 17 33  1  0  0  0  0
 42 43  1  0  0  0  0
 36 42  1  0  0  0  0
 44 45  1  0  0  0  0
 35 44  1  0  0  0  0
 46 47  1  0  0  0  0
 46 48  1  0  0  0  0
 46 49  1  0  0  0  0
 44 46  1  0  0  0  0
 50 51  1  0  0  0  0
 50 52  1  0  0  0  0
 50 53  1  0  0  0  0
 44 50  1  0  0  0  0
 54 55  1  0  0  0  0
 54 56  1  0  0  0  0
 54 57  1  0  0  0  0
 42 54  1  0  0  0  0
 58 59  1  0  0  0  0
 58 60  1  0  0  0  0
 58 61  1  0  0  0  0
 42 58  1  0  0  0  0
 24 62  1  0  0  0  0
 24 63  1  0  0  0  0
 64 65  1  0  0  0  0
 64 66  1  0  0  0  0
 64 67  1  0  0  0  0
 24 64  1  0  0  0  0
 23 68  1  0  0  0  0
 23 69  1  0  0  0  0
 70 71  1  0  0  0  0
 70 72  1  0  0  0  0
 70 73  1  0  0  0  0
 23 70  1  0  0  0  0
  1 13  1  0  0  0  0
M  END
>  <DFT-ENERGY>
-2084.86485024

$$$$
