
  CDK     08132410113D

 79 81  0  0  0  0  0  0  0  0999 V2000
   -0.1992   -3.9997   -2.5468 C   0  0  0  0  0  0  0  0  0  0  0  0
    0.8320   -3.7329   -2.8386 H   0  0  0  0  0  0  0  0  0  0  0  0
   -0.4367   -5.0154   -2.9345 H   0  0  0  0  0  0  0  0  0  0  0  0
   -0.8964   -3.2976   -3.0434 H   0  0  0  0  0  0  0  0  0  0  0  0
   -0.3803   -4.0111   -1.0459 C   0  0  0  0  0  0  0  0  0  0  0  0
   -1.4065   -4.2172   -0.6899 H   0  0  0  0  0  0  0  0  0  0  0  0
    0.6489   -4.4357   -0.1648 C   0  0  0  0  0  0  0  0  0  0  0  0
    1.6662   -4.4783   -0.5927 H   0  0  0  0  0  0  0  0  0  0  0  0
    0.3401   -5.3417    1.0043 C   0  0  0  0  0  0  0  0  0  0  0  0
    1.1727   -5.4051    1.7299 H   0  0  0  0  0  0  0  0  0  0  0  0
    0.1593   -6.3656    0.6111 H   0  0  0  0  0  0  0  0  0  0  0  0
   -0.5782   -5.0065    1.5252 H   0  0  0  0  0  0  0  0  0  0  0  0
    1.2564   -2.6647    1.2065 C   0  0  0  0  0  0  0  0  0  0  0  0
    0.8774   -3.0247    2.1866 H   0  0  0  0  0  0  0  0  0  0  0  0
    2.3560   -2.6643    1.0619 H   0  0  0  0  0  0  0  0  0  0  0  0
    0.1069   -2.0538   -0.0870 Ru  0  0  0  0  0  0  0  0  0  0  0  0
   -1.7601   -2.5694    1.3263 Cl  0  0  0  0  0  0  0  0  0  0  0  0
    1.9640   -1.7325   -1.6115 Cl  0  0  0  0  0  0  0  0  0  0  0  0
   -0.0289   -0.0814   -0.0885 C   0  0  0  0  0  0  0  0  0  0  0  0
   -0.8858    1.8340   -1.5937 C   0  0  0  0  0  0  0  0  0  0  0  0
    1.0160    2.2102    0.0189 C   0  0  0  0  0  0  0  0  0  0  0  0
   -0.3271    2.7411   -0.5063 C   0  0  0  0  0  0  0  0  0  0  0  0
    0.8072    0.7756    0.5336 N   0  0  0  0  0  0  0  0  0  0  0  0
   -1.1517    0.4303   -1.0295 C   0  0  0  0  0  0  0  0  0  0  0  0
   -0.1770    1.7787   -2.4439 H   0  0  0  0  0  0  0  0  0  0  0  0
   -1.0456    2.8390    0.3320 H   0  0  0  0  0  0  0  0  0  0  0  0
   -1.8274    2.2523   -2.0014 H   0  0  0  0  0  0  0  0  0  0  0  0
   -0.1550    3.7651   -0.8948 H   0  0  0  0  0  0  0  0  0  0  0  0
   -1.2791   -0.6338   -2.1567 C   0  0  0  0  0  0  0  0  0  0  0  0
   -2.4264    0.4778   -0.1162 C   0  0  0  0  0  0  0  0  0  0  0  0
    1.5268    3.1259    1.1343 C   0  0  0  0  0  0  0  0  0  0  0  0
    1.6906    4.1335    0.7030 H   0  0  0  0  0  0  0  0  0  0  0  0
    2.4834    2.7768    1.5610 H   0  0  0  0  0  0  0  0  0  0  0  0
    0.8020    3.2206    1.9629 H   0  0  0  0  0  0  0  0  0  0  0  0
    2.0197    2.2012   -1.1591 C   0  0  0  0  0  0  0  0  0  0  0  0
    1.8561    3.1062   -1.7786 H   0  0  0  0  0  0  0  0  0  0  0  0
    1.8943    1.3061   -1.7968 H   0  0  0  0  0  0  0  0  0  0  0  0
    3.0641    2.2291   -0.8129 H   0  0  0  0  0  0  0  0  0  0  0  0
    1.5296    0.3560    1.7401 C   0  0  0  0  0  0  0  0  0  0  0  0
    2.8259   -0.1894    4.1895 C   0  0  0  0  0  0  0  0  0  0  0  0
    2.9366    0.1290    1.7585 C   0  0  0  0  0  0  0  0  0  0  0  0
    0.7633    0.2407    2.9431 C   0  0  0  0  0  0  0  0  0  0  0  0
    1.4405   -0.0204    4.1471 C   0  0  0  0  0  0  0  0  0  0  0  0
    3.5506   -0.1331    3.0009 C   0  0  0  0  0  0  0  0  0  0  0  0
    0.8584   -0.0988    5.0743 H   0  0  0  0  0  0  0  0  0  0  0  0
    4.6369   -0.2992    3.0235 H   0  0  0  0  0  0  0  0  0  0  0  0
    3.3349   -0.3836    5.1448 H   0  0  0  0  0  0  0  0  0  0  0  0
   -0.7572    0.3553    2.9954 C   0  0  0  0  0  0  0  0  0  0  0  0
   -1.1413    0.0026    2.0226 H   0  0  0  0  0  0  0  0  0  0  0  0
    3.8647    0.1436    0.5462 C   0  0  0  0  0  0  0  0  0  0  0  0
    3.2434    0.2217   -0.3616 H   0  0  0  0  0  0  0  0  0  0  0  0
    4.8564    1.3223    0.6191 C   0  0  0  0  0  0  0  0  0  0  0  0
    5.4497    1.3867   -0.3161 H   0  0  0  0  0  0  0  0  0  0  0  0
    5.5708    1.1857    1.4571 H   0  0  0  0  0  0  0  0  0  0  0  0
    4.3587    2.2991    0.7758 H   0  0  0  0  0  0  0  0  0  0  0  0
    4.6677   -1.1625    0.4043 C   0  0  0  0  0  0  0  0  0  0  0  0
    5.3181   -1.3518    1.2827 H   0  0  0  0  0  0  0  0  0  0  0  0
    5.3213   -1.0976   -0.4891 H   0  0  0  0  0  0  0  0  0  0  0  0
    4.0028   -2.0311    0.2486 H   0  0  0  0  0  0  0  0  0  0  0  0
   -1.2328    1.7995    3.2251 C   0  0  0  0  0  0  0  0  0  0  0  0
   -0.8118    2.2110    4.1663 H   0  0  0  0  0  0  0  0  0  0  0  0
   -2.3387    1.8299    3.3053 H   0  0  0  0  0  0  0  0  0  0  0  0
   -0.9405    2.4775    2.4016 H   0  0  0  0  0  0  0  0  0  0  0  0
   -1.3880   -0.5623    4.0547 C   0  0  0  0  0  0  0  0  0  0  0  0
   -1.0099   -1.5979    3.9686 H   0  0  0  0  0  0  0  0  0  0  0  0
   -2.4838   -0.6002    3.8974 H   0  0  0  0  0  0  0  0  0  0  0  0
   -1.2141   -0.1948    5.0878 H   0  0  0  0  0  0  0  0  0  0  0  0
   -2.4815   -0.4677    0.4588 H   0  0  0  0  0  0  0  0  0  0  0  0
   -2.2749    1.2826    0.6302 H   0  0  0  0  0  0  0  0  0  0  0  0
   -3.7765    0.7012   -0.8033 C   0  0  0  0  0  0  0  0  0  0  0  0
   -4.5476    0.8901   -0.0293 H   0  0  0  0  0  0  0  0  0  0  0  0
   -4.1068   -0.1890   -1.3723 H   0  0  0  0  0  0  0  0  0  0  0  0
   -3.7840    1.5719   -1.4909 H   0  0  0  0  0  0  0  0  0  0  0  0
   -0.2535   -0.8773   -2.5009 H   0  0  0  0  0  0  0  0  0  0  0  0
   -1.6992   -1.5636   -1.6940 H   0  0  0  0  0  0  0  0  0  0  0  0
   -2.1017   -0.2831   -3.4024 C   0  0  0  0  0  0  0  0  0  0  0  0
   -3.1686   -0.0889   -3.1955 H   0  0  0  0  0  0  0  0  0  0  0  0
   -2.0481   -1.1206   -4.1269 H   0  0  0  0  0  0  0  0  0  0  0  0
   -1.6877    0.6085   -3.9142 H   0  0  0  0  0  0  0  0  0  0  0  0
  1  2  1  0  0  0  0
  1  5  1  0  0  0  0
  1  3  1  0  0  0  0
  1  4  1  0  0  0  0
  5  6  1  0  0  0  0
  5 16  1  0  0  0  0
  5  7  1  0  0  0  0
  7  9  1  0  0  0  0
  7  8  1  0  0  0  0
  9 10  1  0  0  0  0
  9 11  1  0  0  0  0
  9 12  1  0  0  0  0
 13 14  1  0  0  0  0
 13 15  1  0  0  0  0
  7 13  1  0  0  0  0
 13 16  1  0  0  0  0
 16 17  1  0  0  0  0
 16 18  1  0  0  0  0
 19 23  1  0  0  0  0
 19 24  1  0  0  0  0
 20 25  1  0  0  0  0
 20 27  1  0  0  0  0
 20 22  1  0  0  0  0
 20 24  1  0  0  0  0
 21 23  1  0  0  0  0
 21 22  1  0  0  0  0
 22 26  1  0  0  0  0
 22 28  1  0  0  0  0
 24 29  1  0  0  0  0
 24 30  1  0  0  0  0
 31 32  1  0  0  0  0
 31 33  1  0  0  0  0
 31 34  1  0  0  0  0
 21 31  1  0  0  0  0
 35 36  1  0  0  0  0
 35 37  1  0  0  0  0
 35 38  1  0  0  0  0
 21 35  1  0  0  0  0
 39 42  2  0  0  0  0
 42 43  1  0  0  0  0
 40 43  2  0  0  0  0
 40 44  1  0  0  0  0
 41 44  2  0  0  0  0
 39 41  1  0  0  0  0
 43 45  1  0  0  0  0
 44 46  1  0  0  0  0
 40 47  1  0  0  0  0
 23 39  1  0  0  0  0
 48 49  1  0  0  0  0
 42 48  1  0  0  0  0
 50 51  1  0  0  0  0
 41 50  1  0  0  0  0
 52 53  1  0  0  0  0
 52 54  1  0  0  0  0
 52 55  1  0  0  0  0
 50 52  1  0  0  0  0
 56 57  1  0  0  0  0
 56 58  1  0  0  0  0
 56 59  1  0  0  0  0
 50 56  1  0  0  0  0
 60 61  1  0  0  0  0
 60 62  1  0  0  0  0
 60 63  1  0  0  0  0
 48 60  1  0  0  0  0
 64 65  1  0  0  0  0
 64 66  1  0  0  0  0
 64 67  1  0  0  0  0
 48 64  1  0  0  0  0
 30 68  1  0  0  0  0
 30 69  1  0  0  0  0
 70 71  1  0  0  0  0
 70 72  1  0  0  0  0
 70 73  1  0  0  0  0
 30 70  1  0  0  0  0
 29 74  1  0  0  0  0
 29 75  1  0  0  0  0
 76 77  1  0  0  0  0
 76 78  1  0  0  0  0
 76 79  1  0  0  0  0
 29 76  1  0  0  0  0
 16 19  1  0  0  0  0
M  END
>  <DFT-ENERGY>
-2163.37023934

$$$$
