
  CDK     08132419043D

 73 76  0  0  0  0  0  0  0  0999 V2000
    0.5745    0.1884   -3.9405 H   0  0  0  0  0  0  0  0  0  0  0  0
    1.7813    0.4095   -4.0352 C   0  0  0  0  0  0  0  0  0  0  0  0
    1.6963    0.4911   -5.1390 H   0  0  0  0  0  0  0  0  0  0  0  0
    2.3246   -0.7932   -3.3395 C   0  0  0  0  0  0  0  0  0  0  0  0
    3.2947   -0.6989   -2.8261 H   0  0  0  0  0  0  0  0  0  0  0  0
    2.1315   -1.7641   -3.8252 H   0  0  0  0  0  0  0  0  0  0  0  0
    0.7688   -0.0211   -2.1898 Ru  0  0  0  0  0  0  0  0  0  0  0  0
    1.8065    1.5749   -3.1289 C   0  0  0  0  0  0  0  0  0  0  0  0
    2.7465    1.7930   -2.6046 H   0  0  0  0  0  0  0  0  0  0  0  0
    1.1896    2.4490   -3.4010 H   0  0  0  0  0  0  0  0  0  0  0  0
    2.4858    0.3840   -0.4936 Cl  0  0  0  0  0  0  0  0  0  0  0  0
   -0.6505   -1.6097   -3.3265 Cl  0  0  0  0  0  0  0  0  0  0  0  0
    0.0303   -0.5664   -0.3338 C   0  0  0  0  0  0  0  0  0  0  0  0
   -0.0776   -1.8885    1.8342 C   0  0  0  0  0  0  0  0  0  0  0  0
   -0.8772    0.4919    1.7855 C   0  0  0  0  0  0  0  0  0  0  0  0
   -1.2221   -0.9473    2.1973 C   0  0  0  0  0  0  0  0  0  0  0  0
   -0.5722    0.4625    0.2802 N   0  0  0  0  0  0  0  0  0  0  0  0
    0.0830   -1.9692    0.3056 C   0  0  0  0  0  0  0  0  0  0  0  0
   -0.2598   -2.8988    2.2446 H   0  0  0  0  0  0  0  0  0  0  0  0
   -1.4179   -0.9502    3.2888 H   0  0  0  0  0  0  0  0  0  0  0  0
    0.8696   -1.5384    2.2892 H   0  0  0  0  0  0  0  0  0  0  0  0
   -2.1621   -1.2670    1.7023 H   0  0  0  0  0  0  0  0  0  0  0  0
   -1.1383   -2.7637   -0.3078 C   0  0  0  0  0  0  0  0  0  0  0  0
    1.4164   -2.6557   -0.0884 C   0  0  0  0  0  0  0  0  0  0  0  0
    0.3746    0.9241    2.5890 C   0  0  0  0  0  0  0  0  0  0  0  0
    0.3063    0.4871    3.6053 H   0  0  0  0  0  0  0  0  0  0  0  0
    0.4335    2.0169    2.7095 H   0  0  0  0  0  0  0  0  0  0  0  0
    1.3097    0.5698    2.1172 H   0  0  0  0  0  0  0  0  0  0  0  0
   -2.0305    1.4480    2.0933 C   0  0  0  0  0  0  0  0  0  0  0  0
   -2.1088    1.5528    3.1933 H   0  0  0  0  0  0  0  0  0  0  0  0
   -3.0009    1.0837    1.7160 H   0  0  0  0  0  0  0  0  0  0  0  0
   -1.8569    2.4539    1.6688 H   0  0  0  0  0  0  0  0  0  0  0  0
   -0.8712    1.6102   -0.6020 C   0  0  0  0  0  0  0  0  0  0  0  0
   -1.6071    3.7582   -2.2915 C   0  0  0  0  0  0  0  0  0  0  0  0
   -1.9620    1.4528   -1.5306 C   0  0  0  0  0  0  0  0  0  0  0  0
   -0.1622    2.8542   -0.5282 C   0  0  0  0  0  0  0  0  0  0  0  0
   -0.5563    3.8973   -1.3861 C   0  0  0  0  0  0  0  0  0  0  0  0
   -2.2928    2.5476   -2.3561 C   0  0  0  0  0  0  0  0  0  0  0  0
   -0.0121    4.8501   -1.3334 H   0  0  0  0  0  0  0  0  0  0  0  0
   -3.1233    2.4408   -3.0633 H   0  0  0  0  0  0  0  0  0  0  0  0
   -1.8942    4.5949   -2.9451 H   0  0  0  0  0  0  0  0  0  0  0  0
    0.9787    3.1918    0.4271 C   0  0  0  0  0  0  0  0  0  0  0  0
    1.3162    2.2562    0.8959 H   0  0  0  0  0  0  0  0  0  0  0  0
   -2.8356    0.2031   -1.6657 C   0  0  0  0  0  0  0  0  0  0  0  0
   -2.1669   -0.6709   -1.5909 H   0  0  0  0  0  0  0  0  0  0  0  0
   -3.9134    0.0911   -0.5744 C   0  0  0  0  0  0  0  0  0  0  0  0
   -4.6064   -0.7392   -0.8201 H   0  0  0  0  0  0  0  0  0  0  0  0
   -4.5127    1.0216   -0.4935 H   0  0  0  0  0  0  0  0  0  0  0  0
   -3.4825   -0.1302    0.4181 H   0  0  0  0  0  0  0  0  0  0  0  0
   -3.5085    0.0814   -3.0423 C   0  0  0  0  0  0  0  0  0  0  0  0
   -4.3498    0.7957   -3.1646 H   0  0  0  0  0  0  0  0  0  0  0  0
   -3.9260   -0.9390   -3.1469 H   0  0  0  0  0  0  0  0  0  0  0  0
   -2.7845    0.2247   -3.8655 H   0  0  0  0  0  0  0  0  0  0  0  0
    0.5065    4.1894    1.5039 C   0  0  0  0  0  0  0  0  0  0  0  0
    0.2496    5.1675    1.0473 H   0  0  0  0  0  0  0  0  0  0  0  0
    1.3140    4.3682    2.2433 H   0  0  0  0  0  0  0  0  0  0  0  0
   -0.3897    3.8432    2.0541 H   0  0  0  0  0  0  0  0  0  0  0  0
    2.2077    3.7805   -0.2867 C   0  0  0  0  0  0  0  0  0  0  0  0
    2.5905    3.0900   -1.0563 H   0  0  0  0  0  0  0  0  0  0  0  0
    3.0180    3.9409    0.4531 H   0  0  0  0  0  0  0  0  0  0  0  0
    1.9925    4.7623   -0.7557 H   0  0  0  0  0  0  0  0  0  0  0  0
    1.5316   -2.5410   -1.1864 H   0  0  0  0  0  0  0  0  0  0  0  0
    2.2410   -2.0655    0.3558 H   0  0  0  0  0  0  0  0  0  0  0  0
    1.5737   -4.1278    0.2953 C   0  0  0  0  0  0  0  0  0  0  0  0
    2.6010   -4.4641    0.0497 H   0  0  0  0  0  0  0  0  0  0  0  0
    0.8775   -4.7896   -0.2568 H   0  0  0  0  0  0  0  0  0  0  0  0
    1.4263   -4.3067    1.3808 H   0  0  0  0  0  0  0  0  0  0  0  0
   -1.9679   -2.0631   -0.5193 H   0  0  0  0  0  0  0  0  0  0  0  0
   -0.8241   -3.1344   -1.2999 H   0  0  0  0  0  0  0  0  0  0  0  0
   -1.7213   -3.9089    0.5294 C   0  0  0  0  0  0  0  0  0  0  0  0
   -0.9666   -4.6562    0.8365 H   0  0  0  0  0  0  0  0  0  0  0  0
   -2.4821   -4.4394   -0.0787 H   0  0  0  0  0  0  0  0  0  0  0  0
   -2.2350   -3.5551    1.4463 H   0  0  0  0  0  0  0  0  0  0  0  0
  1  2  1  0  0  0  0
  1  7  1  0  0  0  0
  2  3  1  0  0  0  0
  2  4  1  0  0  0  0
  4  5  1  0  0  0  0
  6  4  1  0  0  0  0
  7  8  1  0  0  0  0
  7  4  1  0  0  0  0
  8  2  1  0  0  0  0
  8  9  1  0  0  0  0
 10  8  1  0  0  0  0
  7 11  1  0  0  0  0
  7 12  1  0  0  0  0
 13 17  1  0  0  0  0
 13 18  1  0  0  0  0
 14 19  1  0  0  0  0
 14 21  1  0  0  0  0
 14 16  1  0  0  0  0
 14 18  1  0  0  0  0
 15 17  1  0  0  0  0
 15 16  1  0  0  0  0
 16 20  1  0  0  0  0
 16 22  1  0  0  0  0
 18 23  1  0  0  0  0
 18 24  1  0  0  0  0
 25 26  1  0  0  0  0
 25 27  1  0  0  0  0
 25 28  1  0  0  0  0
 15 25  1  0  0  0  0
 29 30  1  0  0  0  0
 29 31  1  0  0  0  0
 29 32  1  0  0  0  0
 15 29  1  0  0  0  0
 33 36  2  0  0  0  0
 36 37  1  0  0  0  0
 34 37  2  0  0  0  0
 34 38  1  0  0  0  0
 35 38  2  0  0  0  0
 33 35  1  0  0  0  0
 37 39  1  0  0  0  0
 38 40  1  0  0  0  0
 34 41  1  0  0  0  0
 17 33  1  0  0  0  0
 42 43  1  0  0  0  0
 36 42  1  0  0  0  0
 44 45  1  0  0  0  0
 35 44  1  0  0  0  0
 46 47  1  0  0  0  0
 46 48  1  0  0  0  0
 46 49  1  0  0  0  0
 44 46  1  0  0  0  0
 50 51  1  0  0  0  0
 50 52  1  0  0  0  0
 50 53  1  0  0  0  0
 44 50  1  0  0  0  0
 54 55  1  0  0  0  0
 54 56  1  0  0  0  0
 54 57  1  0  0  0  0
 42 54  1  0  0  0  0
 58 59  1  0  0  0  0
 58 60  1  0  0  0  0
 58 61  1  0  0  0  0
 42 58  1  0  0  0  0
 24 62  1  0  0  0  0
 24 63  1  0  0  0  0
 64 65  1  0  0  0  0
 64 66  1  0  0  0  0
 64 67  1  0  0  0  0
 24 64  1  0  0  0  0
 23 68  1  0  0  0  0
 23 69  1  0  0  0  0
 70 71  1  0  0  0  0
 70 72  1  0  0  0  0
 70 73  1  0  0  0  0
 23 70  1  0  0  0  0
  7 13  1  0  0  0  0
M  END
>  <DFT-ENERGY>
-2084.81608616

$$$$
