
  CDK     08192412103D

 61 64  0  0  0  0  0  0  0  0999 V2000
    1.3064   -0.7931   -0.1457 Ru  0  0  0  0  0  0  0  0  0  0  0  0
    2.9495   -0.6458   -1.2098 C   0  0  0  0  0  0  0  0  0  0  0  0
    2.8390   -0.8446   -2.2903 H   0  0  0  0  0  0  0  0  0  0  0  0
    3.2233   -1.9504   -0.3581 C   0  0  0  0  0  0  0  0  0  0  0  0
    3.3416   -2.7741   -1.0861 H   0  0  0  0  0  0  0  0  0  0  0  0
    2.0915   -2.4077    0.6482 C   0  0  0  0  0  0  0  0  0  0  0  0
    2.3890   -2.3229    1.7082 H   0  0  0  0  0  0  0  0  0  0  0  0
    1.6099   -3.3575    0.3543 H   0  0  0  0  0  0  0  0  0  0  0  0
    4.1161   -1.7370    0.2582 H   0  0  0  0  0  0  0  0  0  0  0  0
    3.6114    0.1955   -0.9369 H   0  0  0  0  0  0  0  0  0  0  0  0
    0.3604   -2.2216   -1.9940 Br  0  0  0  0  0  0  0  0  0  0  0  0
    2.4284    0.5275    1.6842 Br  0  0  0  0  0  0  0  0  0  0  0  0
   -0.8532    1.1650   -0.8294 N   0  0  0  0  0  0  0  0  0  0  0  0
   -1.2907    0.0930    1.0497 N   0  0  0  0  0  0  0  0  0  0  0  0
   -0.4007    0.2305    0.0392 C   0  0  0  0  0  0  0  0  0  0  0  0
   -2.0789    1.8229   -0.3313 C   0  0  0  0  0  0  0  0  0  0  0  0
   -2.5133    0.8874    0.8101 C   0  0  0  0  0  0  0  0  0  0  0  0
   -2.8326    1.9010   -1.1371 H   0  0  0  0  0  0  0  0  0  0  0  0
   -1.8397    2.8482    0.0257 H   0  0  0  0  0  0  0  0  0  0  0  0
   -2.8092    1.4312    1.7268 H   0  0  0  0  0  0  0  0  0  0  0  0
   -3.3488    0.2161    0.5153 H   0  0  0  0  0  0  0  0  0  0  0  0
   -0.1610    1.5659   -2.0221 C   0  0  0  0  0  0  0  0  0  0  0  0
   -0.6127    1.0636   -3.2661 C   0  0  0  0  0  0  0  0  0  0  0  0
    0.1089    1.4138   -4.4167 C   0  0  0  0  0  0  0  0  0  0  0  0
    1.2376    2.2529   -4.3608 C   0  0  0  0  0  0  0  0  0  0  0  0
    1.6135    2.7827   -3.1162 C   0  0  0  0  0  0  0  0  0  0  0  0
    0.9231    2.4677   -1.9305 C   0  0  0  0  0  0  0  0  0  0  0  0
   -0.2205    1.0127   -5.3877 H   0  0  0  0  0  0  0  0  0  0  0  0
    2.4663    3.4771   -3.0596 H   0  0  0  0  0  0  0  0  0  0  0  0
   -1.8347    0.1895   -3.3556 C   0  0  0  0  0  0  0  0  0  0  0  0
   -2.7589    0.7562   -3.1109 H   0  0  0  0  0  0  0  0  0  0  0  0
   -1.7548   -0.6678   -2.6583 H   0  0  0  0  0  0  0  0  0  0  0  0
   -1.9539   -0.2134   -4.3785 H   0  0  0  0  0  0  0  0  0  0  0  0
    2.0183    2.5708   -5.6111 C   0  0  0  0  0  0  0  0  0  0  0  0
    2.6406    1.7034   -5.9181 H   0  0  0  0  0  0  0  0  0  0  0  0
    2.6975    3.4318   -5.4614 H   0  0  0  0  0  0  0  0  0  0  0  0
    1.3469    2.8020   -6.4623 H   0  0  0  0  0  0  0  0  0  0  0  0
    1.3248    3.0974   -0.6244 C   0  0  0  0  0  0  0  0  0  0  0  0
    1.9692    3.9792   -0.8004 H   0  0  0  0  0  0  0  0  0  0  0  0
    1.8796    2.3893    0.0288 H   0  0  0  0  0  0  0  0  0  0  0  0
    0.4431    3.4285   -0.0395 H   0  0  0  0  0  0  0  0  0  0  0  0
   -1.1264   -0.8041    2.1590 C   0  0  0  0  0  0  0  0  0  0  0  0
   -1.4273   -2.1755    1.9997 C   0  0  0  0  0  0  0  0  0  0  0  0
   -1.1918   -3.0279    3.0950 C   0  0  0  0  0  0  0  0  0  0  0  0
   -0.7018   -2.5490    4.3205 C   0  0  0  0  0  0  0  0  0  0  0  0
   -0.4807   -1.1657    4.4574 C   0  0  0  0  0  0  0  0  0  0  0  0
   -0.6943   -0.2722    3.3975 C   0  0  0  0  0  0  0  0  0  0  0  0
   -1.4132   -4.1009    2.9835 H   0  0  0  0  0  0  0  0  0  0  0  0
   -0.1254   -0.7664    5.4200 H   0  0  0  0  0  0  0  0  0  0  0  0
   -2.0026   -2.7188    0.7199 C   0  0  0  0  0  0  0  0  0  0  0  0
   -2.4253   -3.7283    0.8817 H   0  0  0  0  0  0  0  0  0  0  0  0
   -1.2402   -2.7887   -0.0861 H   0  0  0  0  0  0  0  0  0  0  0  0
   -2.8098   -2.0695    0.3247 H   0  0  0  0  0  0  0  0  0  0  0  0
   -0.4168   -3.4873    5.4658 C   0  0  0  0  0  0  0  0  0  0  0  0
    0.6759   -3.6542    5.5757 H   0  0  0  0  0  0  0  0  0  0  0  0
   -0.8906   -4.4758    5.3124 H   0  0  0  0  0  0  0  0  0  0  0  0
   -0.7776   -3.0749    6.4294 H   0  0  0  0  0  0  0  0  0  0  0  0
   -0.4801    1.2067    3.5766 C   0  0  0  0  0  0  0  0  0  0  0  0
   -0.0230    1.4200    4.5607 H   0  0  0  0  0  0  0  0  0  0  0  0
   -1.4392    1.7659    3.5260 H   0  0  0  0  0  0  0  0  0  0  0  0
    0.1966    1.6018    2.7933 H   0  0  0  0  0  0  0  0  0  0  0  0
  2  4  1  0  0  0  0
  2  1  1  0  0  0  0
  2  3  1  0  0  0  0
  4  6  1  0  0  0  0
  4  5  1  0  0  0  0
  6  1  1  0  0  0  0
  6  8  1  0  0  0  0
  7  6  1  0  0  0  0
  9  4  1  0  0  0  0
 10  2  1  0  0  0  0
  1 11  1  0  0  0  0
  1 12  1  0  0  0  0
 13 15  1  0  0  0  0
 14 15  1  0  0  0  0
 13 16  1  0  0  0  0
 14 17  1  0  0  0  0
 16 18  1  0  0  0  0
 16 19  1  0  0  0  0
 17 20  1  0  0  0  0
 17 21  1  0  0  0  0
 16 17  1  0  0  0  0
 22 23  2  0  0  0  0
 23 24  1  0  0  0  0
 24 25  2  0  0  0  0
 25 26  1  0  0  0  0
 22 27  1  0  0  0  0
 24 28  1  0  0  0  0
 26 29  1  0  0  0  0
 26 27  2  0  0  0  0
 13 22  1  0  0  0  0
 30 31  1  0  0  0  0
 30 32  1  0  0  0  0
 30 33  1  0  0  0  0
 23 30  1  0  0  0  0
 34 35  1  0  0  0  0
 34 36  1  0  0  0  0
 34 37  1  0  0  0  0
 25 34  1  0  0  0  0
 38 39  1  0  0  0  0
 38 40  1  0  0  0  0
 38 41  1  0  0  0  0
 27 38  1  0  0  0  0
 42 43  2  0  0  0  0
 43 44  1  0  0  0  0
 44 45  2  0  0  0  0
 45 46  1  0  0  0  0
 42 47  1  0  0  0  0
 44 48  1  0  0  0  0
 46 49  1  0  0  0  0
 46 47  2  0  0  0  0
 14 42  1  0  0  0  0
 50 51  1  0  0  0  0
 50 52  1  0  0  0  0
 50 53  1  0  0  0  0
 43 50  1  0  0  0  0
 54 55  1  0  0  0  0
 54 56  1  0  0  0  0
 54 57  1  0  0  0  0
 45 54  1  0  0  0  0
 58 59  1  0  0  0  0
 58 60  1  0  0  0  0
 58 61  1  0  0  0  0
 47 58  1  0  0  0  0
  1 15  1  0  0  0  0
M  END
>  <DFT-ENERGY>
-6284.36877692

$$$$
