
  CDK     08152412393D

 85 88  0  0  0  0  0  0  0  0999 V2000
    2.1311    1.2483   -0.2024 Ru  0  0  0  0  0  0  0  0  0  0  0  0
    3.7454    1.1415   -1.3076 C   0  0  0  0  0  0  0  0  0  0  0  0
    3.6111    1.4084   -2.3705 H   0  0  0  0  0  0  0  0  0  0  0  0
    4.0680    2.3829   -0.3827 C   0  0  0  0  0  0  0  0  0  0  0  0
    4.1905    3.2504   -1.0563 H   0  0  0  0  0  0  0  0  0  0  0  0
    2.9655    2.7880    0.6762 C   0  0  0  0  0  0  0  0  0  0  0  0
    3.2796    2.6248    1.7220 H   0  0  0  0  0  0  0  0  0  0  0  0
    2.4953    3.7630    0.4542 H   0  0  0  0  0  0  0  0  0  0  0  0
    4.9719    2.1171    0.1949 H   0  0  0  0  0  0  0  0  0  0  0  0
    4.3958    0.2724   -1.1011 H   0  0  0  0  0  0  0  0  0  0  0  0
    1.1986    2.7095   -1.8578 Cl  0  0  0  0  0  0  0  0  0  0  0  0
    3.1783   -0.1469    1.4422 Cl  0  0  0  0  0  0  0  0  0  0  0  0
    0.4170    0.2427   -0.0400 C   0  0  0  0  0  0  0  0  0  0  0  0
   -0.0355   -0.6541   -0.9451 N   0  0  0  0  0  0  0  0  0  0  0  0
   -1.3377   -1.2634   -0.5251 C   0  0  0  0  0  0  0  0  0  0  0  0
   -1.6570   -0.5029    0.8116 C   0  0  0  0  0  0  0  0  0  0  0  0
   -0.4491    0.3642    0.9913 N   0  0  0  0  0  0  0  0  0  0  0  0
   -2.1012   -1.0000   -1.2861 H   0  0  0  0  0  0  0  0  0  0  0  0
   -1.6837   -1.2314    1.6482 H   0  0  0  0  0  0  0  0  0  0  0  0
    0.5981   -0.7519   -2.2454 C   0  0  0  0  0  0  0  0  0  0  0  0
    1.8753   -0.8083   -4.7749 C   0  0  0  0  0  0  0  0  0  0  0  0
    1.8366   -1.4275   -2.3880 C   0  0  0  0  0  0  0  0  0  0  0  0
   -0.0051   -0.1078   -3.3567 C   0  0  0  0  0  0  0  0  0  0  0  0
    0.6396   -0.1630   -4.5998 C   0  0  0  0  0  0  0  0  0  0  0  0
    2.4500   -1.4255   -3.6571 C   0  0  0  0  0  0  0  0  0  0  0  0
    0.1709    0.3508   -5.4535 H   0  0  0  0  0  0  0  0  0  0  0  0
    3.4173   -1.9406   -3.7649 H   0  0  0  0  0  0  0  0  0  0  0  0
    2.5608   -0.8103   -6.1172 C   0  0  0  0  0  0  0  0  0  0  0  0
    1.8903   -1.1950   -6.9129 H   0  0  0  0  0  0  0  0  0  0  0  0
    3.4753   -1.4336   -6.1080 H   0  0  0  0  0  0  0  0  0  0  0  0
    2.8543    0.2184   -6.4141 H   0  0  0  0  0  0  0  0  0  0  0  0
    2.5111   -2.2049   -1.2873 C   0  0  0  0  0  0  0  0  0  0  0  0
    2.0947   -3.2327   -1.2245 H   0  0  0  0  0  0  0  0  0  0  0  0
    2.4291   -1.7345   -0.2905 H   0  0  0  0  0  0  0  0  0  0  0  0
    3.5908   -2.3083   -1.5063 H   0  0  0  0  0  0  0  0  0  0  0  0
   -1.2820    0.6738   -3.2290 C   0  0  0  0  0  0  0  0  0  0  0  0
   -1.4669    1.2622   -4.1464 H   0  0  0  0  0  0  0  0  0  0  0  0
   -1.2141    1.3814   -2.3819 H   0  0  0  0  0  0  0  0  0  0  0  0
   -2.1644    0.0180   -3.0720 H   0  0  0  0  0  0  0  0  0  0  0  0
   -0.0508    1.0725    2.1918 C   0  0  0  0  0  0  0  0  0  0  0  0
    0.8593    2.4235    4.5110 C   0  0  0  0  0  0  0  0  0  0  0  0
    0.3742    0.3281    3.3226 C   0  0  0  0  0  0  0  0  0  0  0  0
   -0.0271    2.4901    2.2106 C   0  0  0  0  0  0  0  0  0  0  0  0
    0.4427    3.1293    3.3757 C   0  0  0  0  0  0  0  0  0  0  0  0
    0.8058    1.0203    4.4622 C   0  0  0  0  0  0  0  0  0  0  0  0
    0.4715    4.2301    3.3860 H   0  0  0  0  0  0  0  0  0  0  0  0
    1.1463    0.4346    5.3303 H   0  0  0  0  0  0  0  0  0  0  0  0
    1.3714    3.1335    5.7379 C   0  0  0  0  0  0  0  0  0  0  0  0
    1.2539    4.2308    5.6537 H   0  0  0  0  0  0  0  0  0  0  0  0
    2.4488    2.9193    5.8991 H   0  0  0  0  0  0  0  0  0  0  0  0
    0.8377    2.7992    6.6510 H   0  0  0  0  0  0  0  0  0  0  0  0
    0.4232   -1.1737    3.3162 C   0  0  0  0  0  0  0  0  0  0  0  0
   -0.5894   -1.6287    3.3528 H   0  0  0  0  0  0  0  0  0  0  0  0
    0.9838   -1.5446    4.1939 H   0  0  0  0  0  0  0  0  0  0  0  0
    0.9395   -1.5359    2.4082 H   0  0  0  0  0  0  0  0  0  0  0  0
   -0.5331    3.3625    1.0909 C   0  0  0  0  0  0  0  0  0  0  0  0
   -0.0760    4.3677    1.1604 H   0  0  0  0  0  0  0  0  0  0  0  0
   -1.6322    3.5013    1.1714 H   0  0  0  0  0  0  0  0  0  0  0  0
   -0.3036    2.9748    0.0817 H   0  0  0  0  0  0  0  0  0  0  0  0
   -1.2912   -2.8294   -0.4524 C   0  0  0  0  0  0  0  0  0  0  0  0
   -2.6647   -3.3937   -0.0493 C   0  0  0  0  0  0  0  0  0  0  0  0
   -2.9811   -3.0609    0.9571 H   0  0  0  0  0  0  0  0  0  0  0  0
   -2.6029   -4.5003   -0.0251 H   0  0  0  0  0  0  0  0  0  0  0  0
   -3.4570   -3.1208   -0.7745 H   0  0  0  0  0  0  0  0  0  0  0  0
   -0.9762   -3.3941   -1.8536 C   0  0  0  0  0  0  0  0  0  0  0  0
    0.0547   -3.1824   -2.1839 H   0  0  0  0  0  0  0  0  0  0  0  0
   -1.6629   -2.9756   -2.6184 H   0  0  0  0  0  0  0  0  0  0  0  0
   -1.1110   -4.4946   -1.8468 H   0  0  0  0  0  0  0  0  0  0  0  0
   -0.2561   -3.3249    0.5692 C   0  0  0  0  0  0  0  0  0  0  0  0
   -0.6072   -3.1739    1.6078 H   0  0  0  0  0  0  0  0  0  0  0  0
    0.7157   -2.8133    0.4587 H   0  0  0  0  0  0  0  0  0  0  0  0
   -0.0864   -4.4126    0.4378 H   0  0  0  0  0  0  0  0  0  0  0  0
   -3.0046    0.2978    0.8636 C   0  0  0  0  0  0  0  0  0  0  0  0
   -4.2049   -0.6518    0.7058 C   0  0  0  0  0  0  0  0  0  0  0  0
   -4.2442   -1.4121    1.5111 H   0  0  0  0  0  0  0  0  0  0  0  0
   -4.2066   -1.1738   -0.2693 H   0  0  0  0  0  0  0  0  0  0  0  0
   -5.1397   -0.0584    0.7628 H   0  0  0  0  0  0  0  0  0  0  0  0
   -3.1472    0.9638    2.2482 C   0  0  0  0  0  0  0  0  0  0  0  0
   -3.0006    0.2269    3.0650 H   0  0  0  0  0  0  0  0  0  0  0  0
   -4.1685    1.3829    2.3527 H   0  0  0  0  0  0  0  0  0  0  0  0
   -2.4278    1.7840    2.4100 H   0  0  0  0  0  0  0  0  0  0  0  0
   -3.0860    1.3544   -0.2490 C   0  0  0  0  0  0  0  0  0  0  0  0
   -3.9286    2.0472   -0.0509 H   0  0  0  0  0  0  0  0  0  0  0  0
   -3.2724    0.8901   -1.2362 H   0  0  0  0  0  0  0  0  0  0  0  0
   -2.1624    1.9541   -0.3218 H   0  0  0  0  0  0  0  0  0  0  0  0
  2  4  1  0  0  0  0
  2  1  1  0  0  0  0
  2  3  1  0  0  0  0
  4  6  1  0  0  0  0
  4  5  1  0  0  0  0
  6  1  1  0  0  0  0
  6  8  1  0  0  0  0
  7  6  1  0  0  0  0
  9  4  1  0  0  0  0
 10  2  1  0  0  0  0
  1 11  1  0  0  0  0
  1 12  1  0  0  0  0
 13 14  1  0  0  0  0
 13 17  1  0  0  0  0
 14 15  1  0  0  0  0
 15 18  1  0  0  0  0
 15 16  1  0  0  0  0
 16 19  1  0  0  0  0
 16 17  1  0  0  0  0
 20 23  2  0  0  0  0
 20 22  1  0  0  0  0
 21 24  2  0  0  0  0
 21 25  1  0  0  0  0
 22 25  2  0  0  0  0
 23 24  1  0  0  0  0
 24 26  1  0  0  0  0
 25 27  1  0  0  0  0
 14 20  1  0  0  0  0
 28 29  1  0  0  0  0
 28 30  1  0  0  0  0
 28 31  1  0  0  0  0
 21 28  1  0  0  0  0
 32 33  1  0  0  0  0
 32 34  1  0  0  0  0
 32 35  1  0  0  0  0
 22 32  1  0  0  0  0
 36 37  1  0  0  0  0
 36 38  1  0  0  0  0
 36 39  1  0  0  0  0
 23 36  1  0  0  0  0
 40 43  2  0  0  0  0
 40 42  1  0  0  0  0
 41 44  2  0  0  0  0
 41 45  1  0  0  0  0
 42 45  2  0  0  0  0
 43 44  1  0  0  0  0
 44 46  1  0  0  0  0
 45 47  1  0  0  0  0
 17 40  1  0  0  0  0
 48 49  1  0  0  0  0
 48 50  1  0  0  0  0
 48 51  1  0  0  0  0
 41 48  1  0  0  0  0
 52 53  1  0  0  0  0
 52 54  1  0  0  0  0
 52 55  1  0  0  0  0
 42 52  1  0  0  0  0
 56 57  1  0  0  0  0
 56 58  1  0  0  0  0
 56 59  1  0  0  0  0
 43 56  1  0  0  0  0
 60 61  1  0  0  0  0
 60 65  1  0  0  0  0
 60 69  1  0  0  0  0
 61 62  1  0  0  0  0
 61 63  1  0  0  0  0
 61 64  1  0  0  0  0
 65 66  1  0  0  0  0
 65 67  1  0  0  0  0
 65 68  1  0  0  0  0
 69 70  1  0  0  0  0
 69 71  1  0  0  0  0
 69 72  1  0  0  0  0
 15 60  1  0  0  0  0
 73 74  1  0  0  0  0
 73 78  1  0  0  0  0
 73 82  1  0  0  0  0
 74 75  1  0  0  0  0
 74 76  1  0  0  0  0
 74 77  1  0  0  0  0
 78 79  1  0  0  0  0
 78 80  1  0  0  0  0
 78 81  1  0  0  0  0
 82 83  1  0  0  0  0
 82 84  1  0  0  0  0
 82 85  1  0  0  0  0
 16 73  1  0  0  0  0
  1 13  1  0  0  0  0
M  END
>  <DFT-ENERGY>
-2370.99751786

$$$$
