tBuSIMes-1_A2
  CDK     08132410223D

 99103  0  0  0  0  0  0  0  0999 V2000
   -1.5361    1.0487    0.1817 Ru  0  0  0  0  0  0  0  0  0  0  0  0
   -3.3139    2.4379    0.1817 O   0  0  0  0  0  0  0  0  0  0  0  0
   -2.7463    0.0446   -0.7516 C   0  0  0  0  0  0  0  0  0  0  0  0
   -2.5135   -0.9781   -1.0445 H   0  0  0  0  0  0  0  0  0  0  0  0
   -3.5494    3.6637    0.9569 C   0  0  0  0  0  0  0  0  0  0  0  0
   -4.0263    4.3986    0.2713 H   0  0  0  0  0  0  0  0  0  0  0  0
   -2.1300    4.0582    1.3193 C   0  0  0  0  0  0  0  0  0  0  0  0
   -1.4754    4.0353    0.4212 H   0  0  0  0  0  0  0  0  0  0  0  0
   -2.0752    5.0589    1.7536 H   0  0  0  0  0  0  0  0  0  0  0  0
   -1.6885    3.3363    2.0427 H   0  0  0  0  0  0  0  0  0  0  0  0
   -4.4251    3.3099    2.1455 C   0  0  0  0  0  0  0  0  0  0  0  0
   -4.0635    2.3759    2.6194 H   0  0  0  0  0  0  0  0  0  0  0  0
   -4.4086    4.0898    2.9128 H   0  0  0  0  0  0  0  0  0  0  0  0
   -5.4670    3.1295    1.8602 H   0  0  0  0  0  0  0  0  0  0  0  0
   -4.3061    1.9329   -0.6167 C   0  0  0  0  0  0  0  0  0  0  0  0
   -5.4752    2.5859   -0.9654 C   0  0  0  0  0  0  0  0  0  0  0  0
   -5.6937    3.5914   -0.6127 H   0  0  0  0  0  0  0  0  0  0  0  0
   -6.3764    1.9284   -1.7965 C   0  0  0  0  0  0  0  0  0  0  0  0
   -7.2991    2.4371   -2.0836 H   0  0  0  0  0  0  0  0  0  0  0  0
   -6.1264    0.6431   -2.2681 C   0  0  0  0  0  0  0  0  0  0  0  0
   -6.8514    0.1488   -2.9122 H   0  0  0  0  0  0  0  0  0  0  0  0
   -4.9567    0.0015   -1.9078 C   0  0  0  0  0  0  0  0  0  0  0  0
   -4.7635   -1.0098   -2.2624 H   0  0  0  0  0  0  0  0  0  0  0  0
   -4.0212    0.6409   -1.0924 C   0  0  0  0  0  0  0  0  0  0  0  0
   -2.1397    0.4847    2.3882 Cl  0  0  0  0  0  0  0  0  0  0  0  0
   -0.7042    2.4224   -1.5424 Cl  0  0  0  0  0  0  0  0  0  0  0  0
    0.1534   -0.0272    0.1133 C   0  0  0  0  0  0  0  0  0  0  0  0
    0.4026   -1.3638   -0.1814 N   0  0  0  0  0  0  0  0  0  0  0  0
    1.8163   -1.8193    0.1268 C   0  0  0  0  0  0  0  0  0  0  0  0
    2.4432   -0.5375    0.7706 C   0  0  0  0  0  0  0  0  0  0  0  0
    1.3819    0.5121    0.5172 N   0  0  0  0  0  0  0  0  0  0  0  0
    1.7254   -2.6306    0.9013 H   0  0  0  0  0  0  0  0  0  0  0  0
    3.3738   -0.2325    0.2322 H   0  0  0  0  0  0  0  0  0  0  0  0
   -0.5399   -2.3244   -0.7001 C   0  0  0  0  0  0  0  0  0  0  0  0
   -2.1305   -4.4010   -1.7263 C   0  0  0  0  0  0  0  0  0  0  0  0
   -0.9129   -2.3151   -2.0684 C   0  0  0  0  0  0  0  0  0  0  0  0
   -1.0726   -3.3051    0.1743 C   0  0  0  0  0  0  0  0  0  0  0  0
   -1.8419   -4.3478   -0.3556 C   0  0  0  0  0  0  0  0  0  0  0  0
   -1.6889   -3.3708   -2.5668 C   0  0  0  0  0  0  0  0  0  0  0  0
   -2.2334   -5.1163    0.3077 H   0  0  0  0  0  0  0  0  0  0  0  0
   -1.9568   -3.3831   -3.6214 H   0  0  0  0  0  0  0  0  0  0  0  0
   -2.9356   -5.5346   -2.2730 C   0  0  0  0  0  0  0  0  0  0  0  0
   -2.5573   -6.5059   -1.9244 H   0  0  0  0  0  0  0  0  0  0  0  0
   -2.9381   -5.5651   -3.3703 H   0  0  0  0  0  0  0  0  0  0  0  0
   -3.9850   -5.4617   -1.9494 H   0  0  0  0  0  0  0  0  0  0  0  0
   -0.5505   -1.1836   -2.9702 C   0  0  0  0  0  0  0  0  0  0  0  0
    0.5318   -1.1723   -3.1996 H   0  0  0  0  0  0  0  0  0  0  0  0
   -0.7745   -0.1982   -2.5038 H   0  0  0  0  0  0  0  0  0  0  0  0
   -1.0876   -1.2055   -3.9260 H   0  0  0  0  0  0  0  0  0  0  0  0
   -0.8793   -3.1975    1.6490 C   0  0  0  0  0  0  0  0  0  0  0  0
   -1.2880   -4.0502    2.2027 H   0  0  0  0  0  0  0  0  0  0  0  0
   -1.3967   -2.2872    2.0242 H   0  0  0  0  0  0  0  0  0  0  0  0
    0.1807   -3.0855    1.9382 H   0  0  0  0  0  0  0  0  0  0  0  0
    1.7084    1.9186    0.6405 C   0  0  0  0  0  0  0  0  0  0  0  0
    2.5787    4.5982    0.9065 C   0  0  0  0  0  0  0  0  0  0  0  0
    2.4704    2.5379   -0.3902 C   0  0  0  0  0  0  0  0  0  0  0  0
    1.3221    2.6884    1.7607 C   0  0  0  0  0  0  0  0  0  0  0  0
    1.7713    4.0147    1.8853 C   0  0  0  0  0  0  0  0  0  0  0  0
    2.9150    3.8546   -0.2337 C   0  0  0  0  0  0  0  0  0  0  0  0
    1.4755    4.5928    2.7578 H   0  0  0  0  0  0  0  0  0  0  0  0
    3.5081    4.3172   -1.0197 H   0  0  0  0  0  0  0  0  0  0  0  0
    3.0624    6.0048    1.0501 C   0  0  0  0  0  0  0  0  0  0  0  0
    2.9336    6.3967    2.0669 H   0  0  0  0  0  0  0  0  0  0  0  0
    2.5112    6.6743    0.3720 H   0  0  0  0  0  0  0  0  0  0  0  0
    4.1281    6.0969    0.7996 H   0  0  0  0  0  0  0  0  0  0  0  0
    2.7803    1.8326   -1.6668 C   0  0  0  0  0  0  0  0  0  0  0  0
    3.3476    0.9002   -1.5064 H   0  0  0  0  0  0  0  0  0  0  0  0
    3.3505    2.4518   -2.3699 H   0  0  0  0  0  0  0  0  0  0  0  0
    1.8338    1.5645   -2.1763 H   0  0  0  0  0  0  0  0  0  0  0  0
    0.4269    2.1671    2.8294 C   0  0  0  0  0  0  0  0  0  0  0  0
    0.7386    2.4673    3.8367 H   0  0  0  0  0  0  0  0  0  0  0  0
    0.3450    1.0596    2.8323 H   0  0  0  0  0  0  0  0  0  0  0  0
   -0.6095    2.5516    2.6870 H   0  0  0  0  0  0  0  0  0  0  0  0
    2.6452   -2.4360   -1.0579 C   0  0  0  0  0  0  0  0  0  0  0  0
    4.0504   -2.8128   -0.5363 C   0  0  0  0  0  0  0  0  0  0  0  0
    4.5992   -1.9462   -0.1535 H   0  0  0  0  0  0  0  0  0  0  0  0
    4.6601   -3.2394   -1.3418 H   0  0  0  0  0  0  0  0  0  0  0  0
    4.0023   -3.5656    0.2575 H   0  0  0  0  0  0  0  0  0  0  0  0
    1.9830   -3.7353   -1.5522 C   0  0  0  0  0  0  0  0  0  0  0  0
    1.1691   -3.5433   -2.2601 H   0  0  0  0  0  0  0  0  0  0  0  0
    1.5626   -4.3267   -0.7325 H   0  0  0  0  0  0  0  0  0  0  0  0
    2.7002   -4.3739   -2.0794 H   0  0  0  0  0  0  0  0  0  0  0  0
    2.8265   -1.4650   -2.2275 C   0  0  0  0  0  0  0  0  0  0  0  0
    3.4293   -0.5887   -1.9439 H   0  0  0  0  0  0  0  0  0  0  0  0
    1.8589   -1.0841   -2.5938 H   0  0  0  0  0  0  0  0  0  0  0  0
    3.3285   -1.9463   -3.0733 H   0  0  0  0  0  0  0  0  0  0  0  0
    2.8078   -0.7407    2.2904 C   0  0  0  0  0  0  0  0  0  0  0  0
    3.8088   -1.9093    2.4268 C   0  0  0  0  0  0  0  0  0  0  0  0
    4.7436   -1.7089    1.8933 H   0  0  0  0  0  0  0  0  0  0  0  0
    3.3996   -2.8562    2.0594 H   0  0  0  0  0  0  0  0  0  0  0  0
    4.0709   -2.0694    3.4797 H   0  0  0  0  0  0  0  0  0  0  0  0
    3.5124    0.5139    2.8331 C   0  0  0  0  0  0  0  0  0  0  0  0
    4.2347    0.9233    2.1199 H   0  0  0  0  0  0  0  0  0  0  0  0
    4.0546    0.2979    3.7604 H   0  0  0  0  0  0  0  0  0  0  0  0
    2.8086    1.3166    3.0727 H   0  0  0  0  0  0  0  0  0  0  0  0
    1.5660   -1.0776    3.1248 C   0  0  0  0  0  0  0  0  0  0  0  0
    1.7906   -1.0876    4.1957 H   0  0  0  0  0  0  0  0  0  0  0  0
    1.1459   -2.0597    2.8650 H   0  0  0  0  0  0  0  0  0  0  0  0
    0.7504   -0.3435    2.9724 H   0  0  0  0  0  0  0  0  0  0  0  0
  2  1  1  0  0  0  0
  3  1  2  0  0  0  0
  4  3  1  0  0  0  0
  5  2  1  0  0  0  0
  6  5  1  0  0  0  0
  7  5  1  0  0  0  0
  8  7  1  0  0  0  0
  9  7  1  0  0  0  0
 10  7  1  0  0  0  0
 11  5  1  0  0  0  0
 12 11  1  0  0  0  0
 13 11  1  0  0  0  0
 14 11  1  0  0  0  0
 15  2  1  0  0  0  0
 15 24  1  0  0  0  0
 16 15  2  0  0  0  0
 17 16  1  0  0  0  0
 18 16  1  0  0  0  0
 19 18  1  0  0  0  0
 20 18  2  0  0  0  0
 21 20  1  0  0  0  0
 22 20  1  0  0  0  0
 22 24  2  0  0  0  0
 23 22  1  0  0  0  0
 24  3  1  0  0  0  0
  1 25  1  0  0  0  0
  1 26  1  0  0  0  0
 27 28  1  0  0  0  0
 27 31  1  0  0  0  0
 28 29  1  0  0  0  0
 29 32  1  0  0  0  0
 29 30  1  0  0  0  0
 30 33  1  0  0  0  0
 30 31  1  0  0  0  0
  1 27  1  0  0  0  0
 34 37  2  0  0  0  0
 34 36  1  0  0  0  0
 35 38  2  0  0  0  0
 35 39  1  0  0  0  0
 36 39  2  0  0  0  0
 37 38  1  0  0  0  0
 38 40  1  0  0  0  0
 39 41  1  0  0  0  0
 28 34  1  0  0  0  0
 42 43  1  0  0  0  0
 42 44  1  0  0  0  0
 42 45  1  0  0  0  0
 35 42  1  0  0  0  0
 46 47  1  0  0  0  0
 46 48  1  0  0  0  0
 46 49  1  0  0  0  0
 36 46  1  0  0  0  0
 50 51  1  0  0  0  0
 50 52  1  0  0  0  0
 50 53  1  0  0  0  0
 37 50  1  0  0  0  0
 54 57  2  0  0  0  0
 54 56  1  0  0  0  0
 55 58  2  0  0  0  0
 55 59  1  0  0  0  0
 56 59  2  0  0  0  0
 57 58  1  0  0  0  0
 58 60  1  0  0  0  0
 59 61  1  0  0  0  0
 31 54  1  0  0  0  0
 62 63  1  0  0  0  0
 62 64  1  0  0  0  0
 62 65  1  0  0  0  0
 55 62  1  0  0  0  0
 66 67  1  0  0  0  0
 66 68  1  0  0  0  0
 66 69  1  0  0  0  0
 56 66  1  0  0  0  0
 70 71  1  0  0  0  0
 70 72  1  0  0  0  0
 70 73  1  0  0  0  0
 57 70  1  0  0  0  0
 74 75  1  0  0  0  0
 74 79  1  0  0  0  0
 74 83  1  0  0  0  0
 75 76  1  0  0  0  0
 75 77  1  0  0  0  0
 75 78  1  0  0  0  0
 79 80  1  0  0  0  0
 79 81  1  0  0  0  0
 79 82  1  0  0  0  0
 83 84  1  0  0  0  0
 83 85  1  0  0  0  0
 83 86  1  0  0  0  0
 29 74  1  0  0  0  0
 87 88  1  0  0  0  0
 87 92  1  0  0  0  0
 87 96  1  0  0  0  0
 88 89  1  0  0  0  0
 88 90  1  0  0  0  0
 88 91  1  0  0  0  0
 92 93  1  0  0  0  0
 92 94  1  0  0  0  0
 92 95  1  0  0  0  0
 96 97  1  0  0  0  0
 96 98  1  0  0  0  0
 96 99  1  0  0  0  0
 30 87  1  0  0  0  0
M  END
> <FrozenCore-PM6_ENERGY>
-143.420

> <RMSD_CONF_CG-CS>
0.411526

> <RMSD_CONF_GO-CS>
0.000000

> <UID>


> <DESCRIPTOR_DEFINITION_1>
desc1=( echo "1 * ( e( $hartree_to_kcalmol * ( ( $freeEnergyZ - $freeEnergyD ) - ( $freeEnergyX + 2*$G_Ethene - $freeEnergyD - 2*$G_Propene ) - $DDG_reference_HGII ) / $kT ) ) " | bc -l )

> <DESCRIPTOR_DEFINITION_2>
desc1=( echo "1 * ( e( $hartree_to_kcalmol * ( ( $freeEnergyZ - $freeEnergyD ) - ( $freeEnergyX + 2*$G_Ethene - $freeEnergyD - 2*$G_Propene ) - $DDG_reference_HGII ) / $kT ) ) " | bc -l )

> <DESCRIPTOR_DEFINITION_3>
desc1=( echo "1 * ( e( $hartree_to_kcalmol * ( ( $freeEnergyZ - $freeEnergyD ) - ( $freeEnergyX + 2*$G_Ethene - $freeEnergyD - 2*$G_Propene ) - $DDG_reference_HGII ) / $kT ) ) " | bc -l )

> <WEIGHT_DEFINITION_1>
w1=$( echo "1 / ( 1 + e( $hartree_to_kcalmol * ( ( ( $freeEnergyX + 2*$G_Ethene - $freeEnergyD - 2*$G_Propene ) ) - ( $DG_referenceProductionBarrier + $magnitude4 ) ) / $kT ) )" | bc -l )

> <WEIGHT_DEFINITION_2>
w1=$( echo "1 / ( 1 + e( $hartree_to_kcalmol * ( ( ( $freeEnergyX + 2*$G_Ethene - $freeEnergyD - 2*$G_Propene ) ) - ( $DG_referenceProductionBarrier + $magnitude4 ) ) / $kT ) )" | bc -l )

> <WEIGHT_DEFINITION_3>
w1=$( echo "1 / ( 1 + e( $hartree_to_kcalmol * ( ( ( $freeEnergyX + 2*$G_Ethene - $freeEnergyD - 2*$G_Propene ) ) - ( $DG_referenceProductionBarrier + $magnitude4 ) ) / $kT ) )" | bc -l )

> <WEIGHT_DEFINITION_4>
w1=$( echo "1 / ( 1 + e( $hartree_to_kcalmol * ( ( ( $freeEnergyX + 2*$G_Ethene - $freeEnergyD - 2*$G_Propene ) ) - ( $DG_referenceProductionBarrier + $magnitude4 ) ) / $kT ) )" | bc -l )

> <CALCULATION_OF_OVERALL_FITNESS>
fitness=$( echo "( $desc1 + $desc2 + $desc3 ) * ( $w1 * $w2 * $w3 * $w4 )" | bc -l )

> <freeEnergyA>
-2716.21241359

> <freeEnergyF>
-2716.20389615

> <freeEnergyE>
-2716.21241359

> <freeEnergyC>
-2370.96949307

> <freeEnergyL>
-1238.3613291

> <freeEnergyX>
-2449.5031546

> <freeEnergyZ>
-2370.95322086

> <freeEnergyD>
-2370.99751773

> <G_Propene>
-117.738020895

> <G_Ethene>
-78.4716324751

> <G_HoveydaProd>
-502.204109499

> <G_SIMes>
-924.27249048

> <G_HG_RuCl2_SIMes>
-2402.13728523

> <DG_referenceProductionBarrier>
0.01468968

> <DG_referencePrecursorStabilityHII>
-0.0052201621

> <DG_referencePrecursorStabilityHI>
0.0117775312

> <DDG_referencePrecursorStability>
.0169976933

> <DG_referenceSynt>
0.0226072217

> <hartree_to_kcalmol>
627.49467516

> <boltzmann_constant>
0.0000000000000000000000138066

> <avogadro_number>
602214000000000000000000

> <jmol_to_kcalmol>
0.00023901

> <temp>
313.15

> <kT>
.6223089948281258706000000000

> <magnitude1>
1.43290809

> <magnitude2>
2.86581618

> <magnitude3>
4.29872427

> <magnitude4>
5.73163236

> <DFT_IDENTIFIER>
1723722312042

> <DFT_MACHINE>
158.39.114.73

> <XTB_IDENTIFIER>
NREC

> <XTB_MACHINE>
NREC

> <DESCRIPTOR_1>
.00599591580203214851

> <DESCRIPTOR_2>
10.765863517751539032

> <DESCRIPTOR_3>
0.0000000001

> <WEIGHT_1>
.98662830416873816750

> <WEIGHT_2>
.99868443656847754919

> <WEIGHT_3>
.99998729706733144377

> <WEIGHT_4>
.98171610870536679218

> <FITNESS>
10.41964517712158320981

$$$$
