
  CDK     08152404263D

 85 89  0  0  0  0  0  0  0  0999 V2000
    2.4580   -0.9956   -2.8200 H   0  0  0  0  0  0  0  0  0  0  0  0
    3.6759   -1.0968   -2.6773 C   0  0  0  0  0  0  0  0  0  0  0  0
    3.7732   -1.1791   -3.7817 H   0  0  0  0  0  0  0  0  0  0  0  0
    3.7485   -2.2725   -1.7585 C   0  0  0  0  0  0  0  0  0  0  0  0
    4.6119   -2.3334   -1.0758 H   0  0  0  0  0  0  0  0  0  0  0  0
    3.3925   -3.2346   -2.1651 H   0  0  0  0  0  0  0  0  0  0  0  0
    2.2876   -0.9914   -1.0545 Ru  0  0  0  0  0  0  0  0  0  0  0  0
    3.8665    0.1658   -1.9472 C   0  0  0  0  0  0  0  0  0  0  0  0
    4.7048    0.2589   -1.2461 H   0  0  0  0  0  0  0  0  0  0  0  0
    3.5482    1.0958   -2.4486 H   0  0  0  0  0  0  0  0  0  0  0  0
    3.7340   -0.5336    0.8649 Cl  0  0  0  0  0  0  0  0  0  0  0  0
    0.6102   -2.1810   -2.2902 Cl  0  0  0  0  0  0  0  0  0  0  0  0
    1.0364   -1.2974    0.5597 C   0  0  0  0  0  0  0  0  0  0  0  0
    0.5792   -2.4167    1.1650 N   0  0  0  0  0  0  0  0  0  0  0  0
   -0.2777   -2.0877    2.3555 C   0  0  0  0  0  0  0  0  0  0  0  0
   -0.4060   -0.5252    2.2832 C   0  0  0  0  0  0  0  0  0  0  0  0
    0.4864   -0.2003    1.1351 N   0  0  0  0  0  0  0  0  0  0  0  0
   -1.2733   -2.5551    2.2133 H   0  0  0  0  0  0  0  0  0  0  0  0
    0.0403   -0.0902    3.2001 H   0  0  0  0  0  0  0  0  0  0  0  0
    0.7258   -3.7452    0.6007 C   0  0  0  0  0  0  0  0  0  0  0  0
    0.9445   -6.3326   -0.5521 C   0  0  0  0  0  0  0  0  0  0  0  0
    1.9707   -4.4207    0.6238 C   0  0  0  0  0  0  0  0  0  0  0  0
   -0.4039   -4.3535   -0.0049 C   0  0  0  0  0  0  0  0  0  0  0  0
   -0.2756   -5.6396   -0.5504 C   0  0  0  0  0  0  0  0  0  0  0  0
    2.0472   -5.6972    0.0325 C   0  0  0  0  0  0  0  0  0  0  0  0
   -1.1592   -6.0956   -1.0238 H   0  0  0  0  0  0  0  0  0  0  0  0
    3.0195   -6.2143    0.0480 H   0  0  0  0  0  0  0  0  0  0  0  0
    1.0632   -7.6935   -1.1894 C   0  0  0  0  0  0  0  0  0  0  0  0
    2.0351   -8.1694   -0.9567 H   0  0  0  0  0  0  0  0  0  0  0  0
    0.9796   -7.6234   -2.2947 H   0  0  0  0  0  0  0  0  0  0  0  0
    0.2561   -8.3735   -0.8484 H   0  0  0  0  0  0  0  0  0  0  0  0
    3.2061   -3.8911    1.2979 C   0  0  0  0  0  0  0  0  0  0  0  0
    3.2061   -4.1521    2.3784 H   0  0  0  0  0  0  0  0  0  0  0  0
    3.3159   -2.7957    1.2146 H   0  0  0  0  0  0  0  0  0  0  0  0
    4.1077   -4.3576    0.8566 H   0  0  0  0  0  0  0  0  0  0  0  0
   -1.7256   -3.6491   -0.1331 C   0  0  0  0  0  0  0  0  0  0  0  0
   -2.3546   -4.1477   -0.8939 H   0  0  0  0  0  0  0  0  0  0  0  0
   -1.5803   -2.6001   -0.4475 H   0  0  0  0  0  0  0  0  0  0  0  0
   -2.3008   -3.6497    0.8178 H   0  0  0  0  0  0  0  0  0  0  0  0
    0.9352    1.0929    0.6743 C   0  0  0  0  0  0  0  0  0  0  0  0
    2.1045    3.4570   -0.3631 C   0  0  0  0  0  0  0  0  0  0  0  0
    1.7509    1.9006    1.5105 C   0  0  0  0  0  0  0  0  0  0  0  0
    0.6360    1.4977   -0.6555 C   0  0  0  0  0  0  0  0  0  0  0  0
    1.2595    2.6662   -1.1477 C   0  0  0  0  0  0  0  0  0  0  0  0
    2.3063    3.0691    0.9747 C   0  0  0  0  0  0  0  0  0  0  0  0
    1.0416    2.9710   -2.1833 H   0  0  0  0  0  0  0  0  0  0  0  0
    2.9569    3.6791    1.6206 H   0  0  0  0  0  0  0  0  0  0  0  0
    2.7842    4.6813   -0.9203 C   0  0  0  0  0  0  0  0  0  0  0  0
    2.6476    5.5592   -0.2567 H   0  0  0  0  0  0  0  0  0  0  0  0
    2.3957    4.9435   -1.9230 H   0  0  0  0  0  0  0  0  0  0  0  0
    3.8785    4.5170   -1.0148 H   0  0  0  0  0  0  0  0  0  0  0  0
    2.0629    1.5252    2.9334 C   0  0  0  0  0  0  0  0  0  0  0  0
    1.1879    1.6711    3.6028 H   0  0  0  0  0  0  0  0  0  0  0  0
    2.8869    2.1497    3.3252 H   0  0  0  0  0  0  0  0  0  0  0  0
    2.3798    0.4682    2.9917 H   0  0  0  0  0  0  0  0  0  0  0  0
   -0.4489    0.8862   -1.5104 C   0  0  0  0  0  0  0  0  0  0  0  0
   -1.4090    1.4117   -1.3123 H   0  0  0  0  0  0  0  0  0  0  0  0
   -0.5983   -0.1934   -1.3533 H   0  0  0  0  0  0  0  0  0  0  0  0
   -0.2148    1.0179   -2.5831 H   0  0  0  0  0  0  0  0  0  0  0  0
    0.3157   -2.6528    3.6938 C   0  0  0  0  0  0  0  0  0  0  0  0
   -0.5927   -2.2845    4.8803 C   0  0  0  0  0  0  0  0  0  0  0  0
   -0.6779   -1.1916    5.0281 H   0  0  0  0  0  0  0  0  0  0  0  0
   -0.1572   -2.7075    5.8079 H   0  0  0  0  0  0  0  0  0  0  0  0
   -1.6127   -2.7047    4.7700 H   0  0  0  0  0  0  0  0  0  0  0  0
    0.3546   -4.1940    3.6359 C   0  0  0  0  0  0  0  0  0  0  0  0
    1.1011   -4.5824    2.9241 H   0  0  0  0  0  0  0  0  0  0  0  0
   -0.6318   -4.6090    3.3420 H   0  0  0  0  0  0  0  0  0  0  0  0
    0.6022   -4.5934    4.6403 H   0  0  0  0  0  0  0  0  0  0  0  0
    1.7196   -2.0868    3.9683 C   0  0  0  0  0  0  0  0  0  0  0  0
    1.6683   -1.0376    4.3207 H   0  0  0  0  0  0  0  0  0  0  0  0
    2.3688   -2.1112    3.0748 H   0  0  0  0  0  0  0  0  0  0  0  0
    2.2129   -2.6713    4.7707 H   0  0  0  0  0  0  0  0  0  0  0  0
   -1.8476    0.0855    2.1661 C   0  0  0  0  0  0  0  0  0  0  0  0
   -2.6547   -0.2239    3.4392 C   0  0  0  0  0  0  0  0  0  0  0  0
   -2.1803    0.2005    4.3465 H   0  0  0  0  0  0  0  0  0  0  0  0
   -2.7946   -1.3102    3.5950 H   0  0  0  0  0  0  0  0  0  0  0  0
   -3.6622    0.2293    3.3464 H   0  0  0  0  0  0  0  0  0  0  0  0
   -1.7477    1.6214    2.0582 C   0  0  0  0  0  0  0  0  0  0  0  0
   -1.1169    2.0464    2.8658 H   0  0  0  0  0  0  0  0  0  0  0  0
   -2.7598    2.0633    2.1568 H   0  0  0  0  0  0  0  0  0  0  0  0
   -1.3280    1.9564    1.0931 H   0  0  0  0  0  0  0  0  0  0  0  0
   -2.6308   -0.4619    0.9650 C   0  0  0  0  0  0  0  0  0  0  0  0
   -3.5584    0.1288    0.8230 H   0  0  0  0  0  0  0  0  0  0  0  0
   -2.9347   -1.5139    1.1204 H   0  0  0  0  0  0  0  0  0  0  0  0
   -2.0481   -0.4040    0.0298 H   0  0  0  0  0  0  0  0  0  0  0  0
  1  2  1  0  0  0  0
  1  7  1  0  0  0  0
  2  3  1  0  0  0  0
  2  4  1  0  0  0  0
  4  5  1  0  0  0  0
  4  6  1  0  0  0  0
  7  8  1  0  0  0  0
  4  7  1  0  0  0  0
  2  8  1  0  0  0  0
  8  9  1  0  0  0  0
  8 10  1  0  0  0  0
  7 11  1  0  0  0  0
  7 12  1  0  0  0  0
 13 14  1  0  0  0  0
 13 17  1  0  0  0  0
 14 15  1  0  0  0  0
 15 18  1  0  0  0  0
 15 16  1  0  0  0  0
 16 19  1  0  0  0  0
 16 17  1  0  0  0  0
 20 23  2  0  0  0  0
 20 22  1  0  0  0  0
 21 24  2  0  0  0  0
 21 25  1  0  0  0  0
 22 25  2  0  0  0  0
 23 24  1  0  0  0  0
 24 26  1  0  0  0  0
 25 27  1  0  0  0  0
 14 20  1  0  0  0  0
 28 29  1  0  0  0  0
 28 30  1  0  0  0  0
 28 31  1  0  0  0  0
 21 28  1  0  0  0  0
 32 33  1  0  0  0  0
 32 34  1  0  0  0  0
 32 35  1  0  0  0  0
 22 32  1  0  0  0  0
 36 37  1  0  0  0  0
 36 38  1  0  0  0  0
 36 39  1  0  0  0  0
 23 36  1  0  0  0  0
 40 43  2  0  0  0  0
 40 42  1  0  0  0  0
 41 44  2  0  0  0  0
 41 45  1  0  0  0  0
 42 45  2  0  0  0  0
 43 44  1  0  0  0  0
 44 46  1  0  0  0  0
 45 47  1  0  0  0  0
 17 40  1  0  0  0  0
 48 49  1  0  0  0  0
 48 50  1  0  0  0  0
 48 51  1  0  0  0  0
 41 48  1  0  0  0  0
 52 53  1  0  0  0  0
 52 54  1  0  0  0  0
 52 55  1  0  0  0  0
 42 52  1  0  0  0  0
 56 57  1  0  0  0  0
 56 58  1  0  0  0  0
 56 59  1  0  0  0  0
 43 56  1  0  0  0  0
 60 61  1  0  0  0  0
 60 65  1  0  0  0  0
 60 69  1  0  0  0  0
 61 62  1  0  0  0  0
 61 63  1  0  0  0  0
 61 64  1  0  0  0  0
 65 66  1  0  0  0  0
 65 67  1  0  0  0  0
 65 68  1  0  0  0  0
 69 70  1  0  0  0  0
 69 71  1  0  0  0  0
 69 72  1  0  0  0  0
 15 60  1  0  0  0  0
 73 74  1  0  0  0  0
 73 78  1  0  0  0  0
 73 82  1  0  0  0  0
 74 75  1  0  0  0  0
 74 76  1  0  0  0  0
 74 77  1  0  0  0  0
 78 79  1  0  0  0  0
 78 80  1  0  0  0  0
 78 81  1  0  0  0  0
 82 83  1  0  0  0  0
 82 84  1  0  0  0  0
 82 85  1  0  0  0  0
 16 73  1  0  0  0  0
  7 13  1  0  0  0  0
M  END
>  <DFT-ENERGY>
-2370.95322126

$$$$
