
  CDK     08142404283D

 91 94  0  0  0  0  0  0  0  0999 V2000
   -0.4103   -4.2738   -2.1485 C   0  0  0  0  0  0  0  0  0  0  0  0
    0.6225   -4.2939   -2.5382 H   0  0  0  0  0  0  0  0  0  0  0  0
   -0.9299   -5.2176   -2.4300 H   0  0  0  0  0  0  0  0  0  0  0  0
   -0.9484   -3.4442   -2.6444 H   0  0  0  0  0  0  0  0  0  0  0  0
   -0.4379   -4.1436   -0.6438 C   0  0  0  0  0  0  0  0  0  0  0  0
   -1.4385   -4.1798   -0.1714 H   0  0  0  0  0  0  0  0  0  0  0  0
    0.6243   -4.6123    0.1763 C   0  0  0  0  0  0  0  0  0  0  0  0
    1.5704   -4.8379   -0.3474 H   0  0  0  0  0  0  0  0  0  0  0  0
    0.3507   -5.3385    1.4716 C   0  0  0  0  0  0  0  0  0  0  0  0
    1.2530   -5.4355    2.1044 H   0  0  0  0  0  0  0  0  0  0  0  0
   -0.0025   -6.3646    1.2306 H   0  0  0  0  0  0  0  0  0  0  0  0
   -0.4451   -4.8239    2.0453 H   0  0  0  0  0  0  0  0  0  0  0  0
    1.6088   -2.7890    1.2214 C   0  0  0  0  0  0  0  0  0  0  0  0
    1.3664   -2.9574    2.2917 H   0  0  0  0  0  0  0  0  0  0  0  0
    2.6564   -2.9615    0.8921 H   0  0  0  0  0  0  0  0  0  0  0  0
    0.3374   -2.2105    0.0283 Ru  0  0  0  0  0  0  0  0  0  0  0  0
   -1.2847   -2.3102    1.8143 Cl  0  0  0  0  0  0  0  0  0  0  0  0
    2.0034   -2.1695   -1.7069 Cl  0  0  0  0  0  0  0  0  0  0  0  0
    0.1763   -0.2130    0.0194 C   0  0  0  0  0  0  0  0  0  0  0  0
    0.7575    0.6817    0.8631 N   0  0  0  0  0  0  0  0  0  0  0  0
    0.3641    2.0952    0.5500 C   0  0  0  0  0  0  0  0  0  0  0  0
   -0.6243    1.9236   -0.6546 C   0  0  0  0  0  0  0  0  0  0  0  0
   -0.6146    0.4426   -0.8707 N   0  0  0  0  0  0  0  0  0  0  0  0
   -0.1930    2.4970    1.4220 H   0  0  0  0  0  0  0  0  0  0  0  0
   -0.1922    2.4084   -1.5554 H   0  0  0  0  0  0  0  0  0  0  0  0
    1.4171    0.2580    2.0791 C   0  0  0  0  0  0  0  0  0  0  0  0
    2.6571   -0.6384    4.4691 C   0  0  0  0  0  0  0  0  0  0  0  0
    2.7493   -0.2293    2.0386 C   0  0  0  0  0  0  0  0  0  0  0  0
    0.7013    0.2903    3.3023 C   0  0  0  0  0  0  0  0  0  0  0  0
    1.3411   -0.1488    4.4725 C   0  0  0  0  0  0  0  0  0  0  0  0
    3.3339   -0.6716    3.2422 C   0  0  0  0  0  0  0  0  0  0  0  0
    0.7731   -0.1281    5.4157 H   0  0  0  0  0  0  0  0  0  0  0  0
    4.3653   -1.0561    3.2068 H   0  0  0  0  0  0  0  0  0  0  0  0
    3.3059   -1.1206    5.7417 C   0  0  0  0  0  0  0  0  0  0  0  0
    3.3561   -0.3114    6.4995 H   0  0  0  0  0  0  0  0  0  0  0  0
    4.3362   -1.4827    5.5623 H   0  0  0  0  0  0  0  0  0  0  0  0
    2.7267   -1.9505    6.1970 H   0  0  0  0  0  0  0  0  0  0  0  0
    3.5935   -0.2618    0.7915 C   0  0  0  0  0  0  0  0  0  0  0  0
    4.4128   -0.9966    0.9085 H   0  0  0  0  0  0  0  0  0  0  0  0
    4.0709    0.7242    0.6128 H   0  0  0  0  0  0  0  0  0  0  0  0
    3.0246   -0.5451   -0.1138 H   0  0  0  0  0  0  0  0  0  0  0  0
   -0.7270    0.7517    3.3811 C   0  0  0  0  0  0  0  0  0  0  0  0
   -1.1737    0.4577    4.3489 H   0  0  0  0  0  0  0  0  0  0  0  0
   -1.3291    0.2890    2.5781 H   0  0  0  0  0  0  0  0  0  0  0  0
   -0.8120    1.8564    3.2997 H   0  0  0  0  0  0  0  0  0  0  0  0
   -1.0932   -0.2512   -2.0514 C   0  0  0  0  0  0  0  0  0  0  0  0
   -1.9819   -1.5778   -4.4010 C   0  0  0  0  0  0  0  0  0  0  0  0
   -0.3553   -0.1310   -3.2605 C   0  0  0  0  0  0  0  0  0  0  0  0
   -2.2699   -1.0456   -2.0074 C   0  0  0  0  0  0  0  0  0  0  0  0
   -2.6815   -1.6900   -3.1931 C   0  0  0  0  0  0  0  0  0  0  0  0
   -0.8176   -0.7914   -4.4073 C   0  0  0  0  0  0  0  0  0  0  0  0
   -3.5947   -2.3043   -3.1556 H   0  0  0  0  0  0  0  0  0  0  0  0
   -0.2306   -0.7000   -5.3342 H   0  0  0  0  0  0  0  0  0  0  0  0
   -2.4286   -2.3113   -5.6390 C   0  0  0  0  0  0  0  0  0  0  0  0
   -3.4783   -2.6523   -5.5556 H   0  0  0  0  0  0  0  0  0  0  0  0
   -1.7979   -3.2094   -5.8121 H   0  0  0  0  0  0  0  0  0  0  0  0
   -2.3396   -1.6758   -6.5427 H   0  0  0  0  0  0  0  0  0  0  0  0
    0.9161    0.6645   -3.3397 C   0  0  0  0  0  0  0  0  0  0  0  0
    0.7216    1.7576   -3.3250 H   0  0  0  0  0  0  0  0  0  0  0  0
    1.4556    0.4359   -4.2771 H   0  0  0  0  0  0  0  0  0  0  0  0
    1.5841    0.4120   -2.4963 H   0  0  0  0  0  0  0  0  0  0  0  0
   -3.1545   -1.1999   -0.7983 C   0  0  0  0  0  0  0  0  0  0  0  0
   -3.9158   -0.3923   -0.7634 H   0  0  0  0  0  0  0  0  0  0  0  0
   -2.6000   -1.2014    0.1568 H   0  0  0  0  0  0  0  0  0  0  0  0
   -3.7038   -2.1590   -0.8554 H   0  0  0  0  0  0  0  0  0  0  0  0
    1.5929    3.0479    0.3220 C   0  0  0  0  0  0  0  0  0  0  0  0
    1.1266    4.4821    0.0143 C   0  0  0  0  0  0  0  0  0  0  0  0
    0.5266    4.5438   -0.9126 H   0  0  0  0  0  0  0  0  0  0  0  0
    2.0209    5.1212   -0.1308 H   0  0  0  0  0  0  0  0  0  0  0  0
    0.5380    4.9189    0.8450 H   0  0  0  0  0  0  0  0  0  0  0  0
    2.4257    3.1354    1.6186 C   0  0  0  0  0  0  0  0  0  0  0  0
    2.9631    2.2026    1.8558 H   0  0  0  0  0  0  0  0  0  0  0  0
    1.7836    3.3791    2.4903 H   0  0  0  0  0  0  0  0  0  0  0  0
    3.1779    3.9440    1.5188 H   0  0  0  0  0  0  0  0  0  0  0  0
    2.4686    2.5829   -0.8520 C   0  0  0  0  0  0  0  0  0  0  0  0
    1.9917    2.8080   -1.8251 H   0  0  0  0  0  0  0  0  0  0  0  0
    2.6743    1.4999   -0.8159 H   0  0  0  0  0  0  0  0  0  0  0  0
    3.4397    3.1178   -0.8344 H   0  0  0  0  0  0  0  0  0  0  0  0
   -2.0691    2.5120   -0.4714 C   0  0  0  0  0  0  0  0  0  0  0  0
   -2.0257    4.0319   -0.2343 C   0  0  0  0  0  0  0  0  0  0  0  0
   -1.5727    4.5770   -1.0857 H   0  0  0  0  0  0  0  0  0  0  0  0
   -1.4781    4.3016    0.6878 H   0  0  0  0  0  0  0  0  0  0  0  0
   -3.0647    4.4014   -0.1189 H   0  0  0  0  0  0  0  0  0  0  0  0
   -2.8700    2.3021   -1.7739 C   0  0  0  0  0  0  0  0  0  0  0  0
   -2.3148    2.6983   -2.6496 H   0  0  0  0  0  0  0  0  0  0  0  0
   -3.8312    2.8511   -1.7098 H   0  0  0  0  0  0  0  0  0  0  0  0
   -3.0997    1.2442   -1.9805 H   0  0  0  0  0  0  0  0  0  0  0  0
   -2.7943    1.8761    0.7254 C   0  0  0  0  0  0  0  0  0  0  0  0
   -3.8759    2.1167    0.6844 H   0  0  0  0  0  0  0  0  0  0  0  0
   -2.4095    2.2723    1.6846 H   0  0  0  0  0  0  0  0  0  0  0  0
   -2.6889    0.7784    0.7447 H   0  0  0  0  0  0  0  0  0  0  0  0
  1  2  1  0  0  0  0
  1  5  1  0  0  0  0
  3  1  1  0  0  0  0
  4  1  1  0  0  0  0
  5  6  1  0  0  0  0
  5 16  1  0  0  0  0
  5  7  1  0  0  0  0
  7  9  1  0  0  0  0
  7  8  1  0  0  0  0
  9 10  1  0  0  0  0
 11  9  1  0  0  0  0
 12  9  1  0  0  0  0
 13 14  1  0  0  0  0
 13 15  1  0  0  0  0
 13  7  1  0  0  0  0
 16 13  1  0  0  0  0
 16 17  1  0  0  0  0
 16 18  1  0  0  0  0
 19 20  1  0  0  0  0
 19 23  1  0  0  0  0
 20 21  1  0  0  0  0
 21 24  1  0  0  0  0
 21 22  1  0  0  0  0
 22 25  1  0  0  0  0
 22 23  1  0  0  0  0
 26 29  2  0  0  0  0
 26 28  1  0  0  0  0
 27 30  2  0  0  0  0
 27 31  1  0  0  0  0
 28 31  2  0  0  0  0
 29 30  1  0  0  0  0
 30 32  1  0  0  0  0
 31 33  1  0  0  0  0
 20 26  1  0  0  0  0
 34 35  1  0  0  0  0
 34 36  1  0  0  0  0
 34 37  1  0  0  0  0
 27 34  1  0  0  0  0
 38 39  1  0  0  0  0
 38 40  1  0  0  0  0
 38 41  1  0  0  0  0
 28 38  1  0  0  0  0
 42 43  1  0  0  0  0
 42 44  1  0  0  0  0
 42 45  1  0  0  0  0
 29 42  1  0  0  0  0
 46 49  2  0  0  0  0
 46 48  1  0  0  0  0
 47 50  2  0  0  0  0
 47 51  1  0  0  0  0
 48 51  2  0  0  0  0
 49 50  1  0  0  0  0
 50 52  1  0  0  0  0
 51 53  1  0  0  0  0
 23 46  1  0  0  0  0
 54 55  1  0  0  0  0
 54 56  1  0  0  0  0
 54 57  1  0  0  0  0
 47 54  1  0  0  0  0
 58 59  1  0  0  0  0
 58 60  1  0  0  0  0
 58 61  1  0  0  0  0
 48 58  1  0  0  0  0
 62 63  1  0  0  0  0
 62 64  1  0  0  0  0
 62 65  1  0  0  0  0
 49 62  1  0  0  0  0
 66 67  1  0  0  0  0
 66 71  1  0  0  0  0
 66 75  1  0  0  0  0
 67 68  1  0  0  0  0
 67 69  1  0  0  0  0
 67 70  1  0  0  0  0
 71 72  1  0  0  0  0
 71 73  1  0  0  0  0
 71 74  1  0  0  0  0
 75 76  1  0  0  0  0
 75 77  1  0  0  0  0
 75 78  1  0  0  0  0
 21 66  1  0  0  0  0
 79 80  1  0  0  0  0
 79 84  1  0  0  0  0
 79 88  1  0  0  0  0
 80 81  1  0  0  0  0
 80 82  1  0  0  0  0
 80 83  1  0  0  0  0
 84 85  1  0  0  0  0
 84 86  1  0  0  0  0
 84 87  1  0  0  0  0
 88 89  1  0  0  0  0
 88 90  1  0  0  0  0
 88 91  1  0  0  0  0
 22 79  1  0  0  0  0
 16 19  1  0  0  0  0
M  END
>  <DFT-ENERGY>
-2449.50315486

$$$$
