LOVPETMODN2_A1
  CDK     02052411103D

 78 82  0  0  0  0  0  0  0  0999 V2000
   -1.1168   -0.1177   -0.8868 Ru  0  0  0  0  0  0  0  0  0  0  0  0
   -2.8912   -0.0082   -2.2760 O   0  0  0  0  0  0  0  0  0  0  0  0
   -2.2672    0.8884    0.1173 C   0  0  0  0  0  0  0  0  0  0  0  0
   -2.0168    1.1664    1.1400 H   0  0  0  0  0  0  0  0  0  0  0  0
   -3.1740   -0.7674   -3.5018 C   0  0  0  0  0  0  0  0  0  0  0  0
   -3.5449   -0.0486   -4.2631 H   0  0  0  0  0  0  0  0  0  0  0  0
   -1.7807   -1.2895   -3.8281 C   0  0  0  0  0  0  0  0  0  0  0  0
   -1.7484   -1.7830   -4.8032 H   0  0  0  0  0  0  0  0  0  0  0  0
   -1.4387   -2.0154   -3.0657 H   0  0  0  0  0  0  0  0  0  0  0  0
   -1.0493   -0.4562   -3.8380 H   0  0  0  0  0  0  0  0  0  0  0  0
   -4.1764   -1.8593   -3.1715 C   0  0  0  0  0  0  0  0  0  0  0  0
   -3.8829   -2.3701   -2.2338 H   0  0  0  0  0  0  0  0  0  0  0  0
   -4.2230   -2.6218   -3.9554 H   0  0  0  0  0  0  0  0  0  0  0  0
   -5.1873   -1.4697   -3.0125 H   0  0  0  0  0  0  0  0  0  0  0  0
   -3.8324    0.8498   -1.7710 C   0  0  0  0  0  0  0  0  0  0  0  0
   -4.9778    1.2699   -2.4240 C   0  0  0  0  0  0  0  0  0  0  0  0
   -5.2171    0.9338   -3.4303 H   0  0  0  0  0  0  0  0  0  0  0  0
   -5.8261    2.1549   -1.7665 C   0  0  0  0  0  0  0  0  0  0  0  0
   -6.7294    2.4992   -2.2753 H   0  0  0  0  0  0  0  0  0  0  0  0
   -5.5475    2.6103   -0.4812 C   0  0  0  0  0  0  0  0  0  0  0  0
   -6.2312    3.2986    0.0129 H   0  0  0  0  0  0  0  0  0  0  0  0
   -4.4022    2.1786    0.1604 C   0  0  0  0  0  0  0  0  0  0  0  0
   -4.1875    2.5206    1.1717 H   0  0  0  0  0  0  0  0  0  0  0  0
   -3.5187    1.3070   -0.4790 C   0  0  0  0  0  0  0  0  0  0  0  0
   -1.8382   -2.2331   -0.3358 Cl  0  0  0  0  0  0  0  0  0  0  0  0
   -0.1790    1.5542   -2.2624 Cl  0  0  0  0  0  0  0  0  0  0  0  0
    0.5912   -0.1411    0.5319 P   0  0  0  0  0  0  0  0  0  0  0  0
    2.1450   -0.7585   -0.4220 C   0  0  0  0  0  0  0  0  0  0  0  0
    2.7567   -1.3779    0.2825 H   0  0  0  0  0  0  0  0  0  0  0  0
    1.6338   -1.6472   -1.5699 C   0  0  0  0  0  0  0  0  0  0  0  0
    0.9416   -2.4422   -1.2144 H   0  0  0  0  0  0  0  0  0  0  0  0
    1.0686   -1.0400   -2.3246 H   0  0  0  0  0  0  0  0  0  0  0  0
    0.7833    2.6891    0.5818 C   0  0  0  0  0  0  0  0  0  0  0  0
    1.4576    2.6618   -0.3010 H   0  0  0  0  0  0  0  0  0  0  0  0
   -0.2488    2.7060    0.1606 H   0  0  0  0  0  0  0  0  0  0  0  0
    3.7835   -1.2172   -2.8362 C   0  0  0  0  0  0  0  0  0  0  0  0
    3.2800   -0.6488   -3.6435 H   0  0  0  0  0  0  0  0  0  0  0  0
    4.6662   -1.6938   -3.3007 H   0  0  0  0  0  0  0  0  0  0  0  0
    0.4280   -1.4830    1.9080 C   0  0  0  0  0  0  0  0  0  0  0  0
    0.1665   -2.4402    1.3757 H   0  0  0  0  0  0  0  0  0  0  0  0
    0.9993    1.4743    1.4944 C   0  0  0  0  0  0  0  0  0  0  0  0
    0.2544    1.5254    2.3322 H   0  0  0  0  0  0  0  0  0  0  0  0
    3.0261    0.3585   -0.9898 C   0  0  0  0  0  0  0  0  0  0  0  0
    2.4485    0.9982   -1.6953 H   0  0  0  0  0  0  0  0  0  0  0  0
    3.3964    1.0343   -0.1854 H   0  0  0  0  0  0  0  0  0  0  0  0
    2.4201    4.0264    1.9887 C   0  0  0  0  0  0  0  0  0  0  0  0
    3.1915    4.0567    1.1953 H   0  0  0  0  0  0  0  0  0  0  0  0
    2.5498    4.9538    2.5769 H   0  0  0  0  0  0  0  0  0  0  0  0
    4.2303   -0.2492   -1.7309 C   0  0  0  0  0  0  0  0  0  0  0  0
    4.8424    0.5614   -2.1696 H   0  0  0  0  0  0  0  0  0  0  0  0
    4.8867   -0.7772   -1.0139 H   0  0  0  0  0  0  0  0  0  0  0  0
    2.8306   -2.2923   -2.2931 C   0  0  0  0  0  0  0  0  0  0  0  0
    3.3722   -2.9648   -1.6017 H   0  0  0  0  0  0  0  0  0  0  0  0
    2.4694   -2.9302   -3.1212 H   0  0  0  0  0  0  0  0  0  0  0  0
    1.0242    3.9979    1.3529 C   0  0  0  0  0  0  0  0  0  0  0  0
    0.2517    4.1233    2.1347 H   0  0  0  0  0  0  0  0  0  0  0  0
    0.9044    4.8569    0.6650 H   0  0  0  0  0  0  0  0  0  0  0  0
    2.4039    1.4933    2.1091 C   0  0  0  0  0  0  0  0  0  0  0  0
    2.5509    0.6341    2.8032 H   0  0  0  0  0  0  0  0  0  0  0  0
    3.1849    1.4009    1.3174 H   0  0  0  0  0  0  0  0  0  0  0  0
   -0.7411   -1.1265    2.8347 C   0  0  0  0  0  0  0  0  0  0  0  0
   -0.5749   -0.1592    3.3484 H   0  0  0  0  0  0  0  0  0  0  0  0
   -1.6844   -1.0325    2.2468 H   0  0  0  0  0  0  0  0  0  0  0  0
    1.7219   -1.7178    2.6942 C   0  0  0  0  0  0  0  0  0  0  0  0
    2.0569   -0.7854    3.2068 H   0  0  0  0  0  0  0  0  0  0  0  0
    2.5499   -2.0165    2.0170 H   0  0  0  0  0  0  0  0  0  0  0  0
    2.6405    2.8002    2.8842 C   0  0  0  0  0  0  0  0  0  0  0  0
    3.6678    2.8105    3.2937 H   0  0  0  0  0  0  0  0  0  0  0  0
    1.9621    2.8481    3.7573 H   0  0  0  0  0  0  0  0  0  0  0  0
    0.3520   -2.4757    4.6894 C   0  0  0  0  0  0  0  0  0  0  0  0
    0.6032   -1.5830    5.2929 H   0  0  0  0  0  0  0  0  0  0  0  0
    0.1956   -3.2996    5.4107 H   0  0  0  0  0  0  0  0  0  0  0  0
    1.5175   -2.8164    3.7508 C   0  0  0  0  0  0  0  0  0  0  0  0
    1.3216   -3.7849    3.2505 H   0  0  0  0  0  0  0  0  0  0  0  0
    2.4466   -2.9543    4.3339 H   0  0  0  0  0  0  0  0  0  0  0  0
   -0.9370   -2.2237    3.8962 C   0  0  0  0  0  0  0  0  0  0  0  0
   -1.7565   -1.9395    4.5816 H   0  0  0  0  0  0  0  0  0  0  0  0
   -1.2642   -3.1602    3.4016 H   0  0  0  0  0  0  0  0  0  0  0  0
  2  1  1  0  0  0  0
  3  1  2  0  0  0  0
  4  3  1  0  0  0  0
  5  2  1  0  0  0  0
  6  5  1  0  0  0  0
  7  5  1  0  0  0  0
  8  7  1  0  0  0  0
  9  7  1  0  0  0  0
 10  7  1  0  0  0  0
 11  5  1  0  0  0  0
 12 11  1  0  0  0  0
 13 11  1  0  0  0  0
 14 11  1  0  0  0  0
 15  2  1  0  0  0  0
 15 24  1  0  0  0  0
 16 15  2  0  0  0  0
 17 16  1  0  0  0  0
 18 16  1  0  0  0  0
 19 18  1  0  0  0  0
 20 18  2  0  0  0  0
 21 20  1  0  0  0  0
 22 20  1  0  0  0  0
 22 24  2  0  0  0  0
 23 22  1  0  0  0  0
 24  3  1  0  0  0  0
  1 25  1  0  0  0  0
  1 26  1  0  0  0  0
 28 27  1  0  0  0  0
 29 28  1  0  0  0  0
 30 28  1  0  0  0  0
 31 30  1  0  0  0  0
 32 30  1  0  0  0  0
 33 34  1  0  0  0  0
 35 33  1  0  0  0  0
 36 37  1  0  0  0  0
 38 36  1  0  0  0  0
 39 27  1  0  0  0  0
 40 39  1  0  0  0  0
 41 27  1  0  0  0  0
 42 41  1  0  0  0  0
 43 28  1  0  0  0  0
 44 43  1  0  0  0  0
 45 43  1  0  0  0  0
 46 47  1  0  0  0  0
 48 46  1  0  0  0  0
 49 36  1  0  0  0  0
 50 49  1  0  0  0  0
 51 49  1  0  0  0  0
 52 30  1  0  0  0  0
 53 52  1  0  0  0  0
 54 52  1  0  0  0  0
 55 33  1  0  0  0  0
 56 55  1  0  0  0  0
 57 55  1  0  0  0  0
 58 41  1  0  0  0  0
 59 58  1  0  0  0  0
 60 58  1  0  0  0  0
 61 39  1  0  0  0  0
 62 61  1  0  0  0  0
 63 61  1  0  0  0  0
 64 39  1  0  0  0  0
 65 64  1  0  0  0  0
 66 64  1  0  0  0  0
 67 46  1  0  0  0  0
 68 67  1  0  0  0  0
 69 67  1  0  0  0  0
 70 71  1  0  0  0  0
 72 70  1  0  0  0  0
 73 64  1  0  0  0  0
 74 73  1  0  0  0  0
 75 73  1  0  0  0  0
 76 61  1  0  0  0  0
 77 76  1  0  0  0  0
 78 76  1  0  0  0  0
 33 41  1  0  0  0  0
 36 52  1  0  0  0  0
 43 49  1  0  0  0  0
 46 55  1  0  0  0  0
 58 67  1  0  0  0  0
 70 73  1  0  0  0  0
 70 76  1  0  0  0  0
  1 27  1  0  0  0  0
M  END
> <FrozenCore-PM6_ENERGY>
104.279

> <RMSD_CONF_CG-CS>
0.441986

> <RMSD_CONF_GO-CS>
0.000000

> <UID>


> <freeEnergyA>
-2523.9566437

> <freeEnergyF>
-2523.93686294

> <freeEnergyE>
-2523.9566437

> <freeEnergyC>
-2178.68228039

> <freeEnergyL>
-1046.11471398

> <freeEnergyX>
-2257.21505561

> <freeEnergyZ>
-2178.67498669

> <freeEnergyD>
-2178.70414492

> <G_Propene>
-117.738020895

> <G_Ethene>
-78.4716324751

> <G_HoveydaProd>
-502.204109499

> <G_SIMes>
-924.27249048

> <G_HG_RuCl2_SIMes>
-2402.13728523

> <DG_referenceProductionBarrier>
0.01468968

> <hartree_to_kcalmol>
627.49467516

> <DFT_IDENTIFIER>
1707192251723

> <DFT_MACHINE>
158.36.42.38

> <XTB_IDENTIFIER>
NREC

> <XTB_MACHINE>
NREC

> <DE_Synth>
14.3476845723736548

> <DESCRIPTOR_DEFINITION_1>
desc1=( echo "1 * ( e( $hartree_to_kcalmol * ( ( $freeEnergyZ - $freeEnergyD ) - ( $freeEnergyX + 2*$G_Ethene - $freeEnergyD - 2*$G_Propene ) - $DDG_reference_HGII ) / $kT ) ) " | bc -l )

> <DESCRIPTOR_DEFINITION_2>
desc2=$( echo "1 * ( $hartree_to_kcalmol * ( ( $freeEnergyZ - $freeEnergyD ) - ( $freeEnergyX + 2*$G_Ethene - $freeEnergyD - 2*$G_Propene ) ) )" | bc -l )

> <DESCRIPTOR_DEFINITION_3>
desc3=$( echo "1 * $hartree_to_kcalmol * ( $DG_referenceProductionBarrier - ( $freeEnergyX + 2*$G_Ethene - $freeEnergyD - 2*$G_Propene ) )" | bc -l )

> <WEIGHT_DEFINITION_1>
w1=$( echo "1 / ( 1 + e( $hartree_to_kcalmol * ( ( ( $freeEnergyX + 2*$G_Ethene - $freeEnergyD - 2*$G_Propene ) ) - ( $DG_referenceProductionBarrier + $magnitude4 ) ) / $kT ) )" | bc -l )

> <WEIGHT_DEFINITION_2>
w2=$( echo "1 / ( 1 + e( $hartree_to_kcalmol * ( ABS( $freeEnergyC + $G_HoveydaProd - $freeEnergyA - 2*${G_Ethene} - $DG_referencePrecursorStabilityHII ) - ( $DDG_referencePrecursorStability + $magnitude1 ) ) / $kT ) )" | bc -l )

> <WEIGHT_DEFINITION_3>
w3=$( echo "1 / ( 1 + e( $hartree_to_kcalmol * ( ( $freeEnergyE + $G_PCy3 - $G_HI_precursor - $freeEnergyL ) - $magnitude1 ) / $kT ) )" | bc -l )

> <WEIGHT_DEFINITION_4>
w4=$( echo "1 / ( 1 + e( $hartree_to_kcalmol * ( - ( $freeEnergyF - $freeEnergyA ) + $magnitude2 ) / $kT ) )" | bc -l )

> <FITNESS_DEFINITION>
fitness=$( echo "( $desc1 + $desc2 + $desc3 ) * $w1 * $w2 * $w3 * $w4" | bc -l )

> <DESCRIPTOR_1>
.00000028702401149460

> <DESCRIPTOR_2>
4.575741496339667832

> <DESCRIPTOR_3>
.254307904475469000

> <WEIGHT_1>
.99993354504316868629

> <WEIGHT_2>
.63339918361738198342

> <WEIGHT_3>
.88519862288222679717

> <WEIGHT_4>
.99999978236768971967

> <FITNESS>
2.70795143195006772723

$$$$
