
  CDK     08132405443D

 58 62  0  0  0  0  0  0  0  0999 V2000
    1.1369   -0.5911   -3.9539 H   0  0  0  0  0  0  0  0  0  0  0  0
    2.3607   -0.7186   -3.9683 C   0  0  0  0  0  0  0  0  0  0  0  0
    2.2931   -0.5499   -5.0680 H   0  0  0  0  0  0  0  0  0  0  0  0
    2.7783    0.3398   -3.0067 C   0  0  0  0  0  0  0  0  0  0  0  0
    3.7214    0.1825   -2.4570 H   0  0  0  0  0  0  0  0  0  0  0  0
    2.5771    1.3818   -3.3104 H   0  0  0  0  0  0  0  0  0  0  0  0
    1.1937   -0.7073   -2.1849 Ru  0  0  0  0  0  0  0  0  0  0  0  0
    2.4198   -2.0526   -3.3710 C   0  0  0  0  0  0  0  0  0  0  0  0
    3.3000   -2.3480   -2.7876 H   0  0  0  0  0  0  0  0  0  0  0  0
    1.8809   -2.8663   -3.8858 H   0  0  0  0  0  0  0  0  0  0  0  0
    2.7019   -1.6126   -0.5199 Cl  0  0  0  0  0  0  0  0  0  0  0  0
   -0.5501    0.5499   -3.2781 Cl  0  0  0  0  0  0  0  0  0  0  0  0
    0.1998   -0.0506   -0.0829 P   0  0  0  0  0  0  0  0  0  0  0  0
   -0.8147   -1.5754    0.3301 C   0  0  0  0  0  0  0  0  0  0  0  0
   -1.7286   -1.2472    0.8737 H   0  0  0  0  0  0  0  0  0  0  0  0
   -1.2273   -2.1374   -1.0503 C   0  0  0  0  0  0  0  0  0  0  0  0
   -1.7790   -1.3820   -1.6431 H   0  0  0  0  0  0  0  0  0  0  0  0
   -0.2847   -2.3671   -1.6331 H   0  0  0  0  0  0  0  0  0  0  0  0
   -1.3250   -4.4803   -0.0745 C   0  0  0  0  0  0  0  0  0  0  0  0
   -0.3942   -4.8010   -0.5939 H   0  0  0  0  0  0  0  0  0  0  0  0
   -1.9569   -5.3860    0.0347 H   0  0  0  0  0  0  0  0  0  0  0  0
   -1.0463    1.3497   -0.2010 C   0  0  0  0  0  0  0  0  0  0  0  0
   -1.6908    1.0466   -1.0536 H   0  0  0  0  0  0  0  0  0  0  0  0
    1.2147    0.4782    1.3503 C   0  0  0  0  0  0  0  0  0  0  0  0
   -0.0916   -2.6463    1.1633 C   0  0  0  0  0  0  0  0  0  0  0  0
    0.8670   -2.9005    0.6667 H   0  0  0  0  0  0  0  0  0  0  0  0
    0.1741   -2.2503    2.1627 H   0  0  0  0  0  0  0  0  0  0  0  0
   -0.9588   -3.9059    1.2994 C   0  0  0  0  0  0  0  0  0  0  0  0
   -0.4187   -4.6626    1.9052 H   0  0  0  0  0  0  0  0  0  0  0  0
   -1.8928   -3.6631    1.8567 H   0  0  0  0  0  0  0  0  0  0  0  0
   -2.0435   -3.4305   -0.9287 C   0  0  0  0  0  0  0  0  0  0  0  0
   -3.0235   -3.1832   -0.4610 H   0  0  0  0  0  0  0  0  0  0  0  0
   -2.2699   -3.8256   -1.9405 H   0  0  0  0  0  0  0  0  0  0  0  0
   -0.3300    2.6563   -0.5858 C   0  0  0  0  0  0  0  0  0  0  0  0
    0.3569    2.9493    0.2389 H   0  0  0  0  0  0  0  0  0  0  0  0
    0.2866    2.4923   -1.4912 H   0  0  0  0  0  0  0  0  0  0  0  0
   -1.9155    1.5573    1.0487 C   0  0  0  0  0  0  0  0  0  0  0  0
   -1.2694    1.8409    1.9073 H   0  0  0  0  0  0  0  0  0  0  0  0
   -2.4403    0.6220    1.3345 H   0  0  0  0  0  0  0  0  0  0  0  0
   -2.2570    3.9845    0.3913 C   0  0  0  0  0  0  0  0  0  0  0  0
   -1.6441    4.3546    1.2444 H   0  0  0  0  0  0  0  0  0  0  0  0
   -3.0153    4.7684    0.1847 H   0  0  0  0  0  0  0  0  0  0  0  0
   -2.9426    2.6749    0.8002 C   0  0  0  0  0  0  0  0  0  0  0  0
   -3.6395    2.3559   -0.0071 H   0  0  0  0  0  0  0  0  0  0  0  0
   -3.5600    2.8246    1.7107 H   0  0  0  0  0  0  0  0  0  0  0  0
   -1.3498    3.7776   -0.8278 C   0  0  0  0  0  0  0  0  0  0  0  0
   -0.8206    4.7193   -1.0829 H   0  0  0  0  0  0  0  0  0  0  0  0
   -1.9690    3.5125   -1.7136 H   0  0  0  0  0  0  0  0  0  0  0  0
    0.7599    0.3301    2.6748 C   0  0  0  0  0  0  0  0  0  0  0  0
    2.4171    1.1691    1.1025 C   0  0  0  0  0  0  0  0  0  0  0  0
    1.5080    0.8558    3.7403 C   0  0  0  0  0  0  0  0  0  0  0  0
   -0.1824   -0.1953    2.8830 H   0  0  0  0  0  0  0  0  0  0  0  0
    2.7738    1.2655    0.0677 H   0  0  0  0  0  0  0  0  0  0  0  0
    3.1530    1.7043    2.1673 C   0  0  0  0  0  0  0  0  0  0  0  0
    2.7031    1.5446    3.4881 C   0  0  0  0  0  0  0  0  0  0  0  0
    4.0913    2.2407    1.9651 H   0  0  0  0  0  0  0  0  0  0  0  0
    1.1504    0.7268    4.7722 H   0  0  0  0  0  0  0  0  0  0  0  0
    3.2878    1.9563    4.3235 H   0  0  0  0  0  0  0  0  0  0  0  0
  1  2  1  0  0  0  0
  1  7  1  0  0  0  0
  2  3  1  0  0  0  0
  2  4  1  0  0  0  0
  4  5  1  0  0  0  0
  4  6  1  0  0  0  0
  7  8  1  0  0  0  0
  4  7  1  0  0  0  0
  2  8  1  0  0  0  0
  8  9  1  0  0  0  0
  8 10  1  0  0  0  0
  7 11  1  0  0  0  0
  7 12  1  0  0  0  0
 13 14  1  0  0  0  0
 14 15  1  0  0  0  0
 14 16  1  0  0  0  0
 16 17  1  0  0  0  0
 16 18  1  0  0  0  0
 19 20  1  0  0  0  0
 19 31  1  0  0  0  0
 19 21  1  0  0  0  0
 13 22  1  0  0  0  0
 22 23  1  0  0  0  0
 13 24  1  0  0  0  0
 14 25  1  0  0  0  0
 25 28  1  0  0  0  0
 25 26  1  0  0  0  0
 25 27  1  0  0  0  0
 19 28  1  0  0  0  0
 28 29  1  0  0  0  0
 28 30  1  0  0  0  0
 16 31  1  0  0  0  0
 31 32  1  0  0  0  0
 31 33  1  0  0  0  0
 22 34  1  0  0  0  0
 34 35  1  0  0  0  0
 34 36  1  0  0  0  0
 22 37  1  0  0  0  0
 37 38  1  0  0  0  0
 37 39  1  0  0  0  0
 40 41  1  0  0  0  0
 40 43  1  0  0  0  0
 40 46  1  0  0  0  0
 40 42  1  0  0  0  0
 37 43  1  0  0  0  0
 43 44  1  0  0  0  0
 43 45  1  0  0  0  0
 34 46  1  0  0  0  0
 46 47  1  0  0  0  0
 46 48  1  0  0  0  0
 24 49  2  0  0  0  0
 24 50  1  0  0  0  0
 49 51  1  0  0  0  0
 51 55  2  0  0  0  0
 49 52  1  0  0  0  0
 50 53  1  0  0  0  0
 50 54  2  0  0  0  0
 54 55  1  0  0  0  0
 54 56  1  0  0  0  0
 51 57  1  0  0  0  0
 55 58  1  0  0  0  0
  7 13  1  0  0  0  0
M  END
>  <DFT-ENERGY>
-2175.08189404

$$$$
