
  CDK     08132402153D

 64 67  0  0  0  0  0  0  0  0999 V2000
   -0.6839    3.9485   -1.8884 C   0  0  0  0  0  0  0  0  0  0  0  0
    0.2669    3.8977   -2.4483 H   0  0  0  0  0  0  0  0  0  0  0  0
   -1.2643    4.8428   -2.2068 H   0  0  0  0  0  0  0  0  0  0  0  0
   -1.3021    3.0689   -2.1734 H   0  0  0  0  0  0  0  0  0  0  0  0
   -0.4685    4.0129   -0.3938 C   0  0  0  0  0  0  0  0  0  0  0  0
   -1.3788    4.1475    0.2185 H   0  0  0  0  0  0  0  0  0  0  0  0
    0.7495    4.4193    0.2128 C   0  0  0  0  0  0  0  0  0  0  0  0
    1.6278    4.5429   -0.4443 H   0  0  0  0  0  0  0  0  0  0  0  0
    0.7108    5.2166    1.4980 C   0  0  0  0  0  0  0  0  0  0  0  0
    1.6790    5.2226    2.0335 H   0  0  0  0  0  0  0  0  0  0  0  0
    0.4665    6.2704    1.2428 H   0  0  0  0  0  0  0  0  0  0  0  0
   -0.0799    4.8374    2.1744 H   0  0  0  0  0  0  0  0  0  0  0  0
    1.5922    2.5881    1.3629 C   0  0  0  0  0  0  0  0  0  0  0  0
    1.2887    2.7791    2.4159 H   0  0  0  0  0  0  0  0  0  0  0  0
    2.6721    2.7041    1.1132 H   0  0  0  0  0  0  0  0  0  0  0  0
    0.3837    2.0940    0.0913 Ru  0  0  0  0  0  0  0  0  0  0  0  0
   -1.3620    2.0750    1.7616 Cl  0  0  0  0  0  0  0  0  0  0  0  0
    2.0704    2.0939   -1.6056 Cl  0  0  0  0  0  0  0  0  0  0  0  0
    0.1904   -0.2581   -0.0736 P   0  0  0  0  0  0  0  0  0  0  0  0
   -1.0401   -0.6418   -1.4279 C   0  0  0  0  0  0  0  0  0  0  0  0
   -1.1529   -1.7492   -1.4489 H   0  0  0  0  0  0  0  0  0  0  0  0
   -2.4113   -0.0241   -1.0952 C   0  0  0  0  0  0  0  0  0  0  0  0
   -2.7876   -0.4032   -0.1239 H   0  0  0  0  0  0  0  0  0  0  0  0
   -2.2974    1.0738   -0.9539 H   0  0  0  0  0  0  0  0  0  0  0  0
   -2.9100    0.1749   -3.5746 C   0  0  0  0  0  0  0  0  0  0  0  0
   -2.8037    1.2836   -3.5555 H   0  0  0  0  0  0  0  0  0  0  0  0
   -3.6473   -0.0557   -4.3714 H   0  0  0  0  0  0  0  0  0  0  0  0
   -0.4432   -1.1010    1.4705 C   0  0  0  0  0  0  0  0  0  0  0  0
   -1.3674   -0.5266    1.6983 H   0  0  0  0  0  0  0  0  0  0  0  0
    1.7148   -1.1986   -0.4941 C   0  0  0  0  0  0  0  0  0  0  0  0
   -0.5212   -0.1703   -2.7978 C   0  0  0  0  0  0  0  0  0  0  0  0
   -0.3028    0.9185   -2.7545 H   0  0  0  0  0  0  0  0  0  0  0  0
    0.4500   -0.6510   -3.0291 H   0  0  0  0  0  0  0  0  0  0  0  0
   -1.5497   -0.4545   -3.9001 C   0  0  0  0  0  0  0  0  0  0  0  0
   -1.1672   -0.0803   -4.8721 H   0  0  0  0  0  0  0  0  0  0  0  0
   -1.6745   -1.5557   -4.0139 H   0  0  0  0  0  0  0  0  0  0  0  0
   -3.4256   -0.3042   -2.2121 C   0  0  0  0  0  0  0  0  0  0  0  0
   -3.6229   -1.3994   -2.2604 H   0  0  0  0  0  0  0  0  0  0  0  0
   -4.3941    0.1783   -1.9660 H   0  0  0  0  0  0  0  0  0  0  0  0
    0.5391   -0.8712    2.6303 C   0  0  0  0  0  0  0  0  0  0  0  0
    1.5160   -1.3466    2.3881 H   0  0  0  0  0  0  0  0  0  0  0  0
    0.7141    0.2169    2.7482 H   0  0  0  0  0  0  0  0  0  0  0  0
   -0.7699   -2.5908    1.2964 C   0  0  0  0  0  0  0  0  0  0  0  0
    0.1512   -3.1413    1.0041 H   0  0  0  0  0  0  0  0  0  0  0  0
   -1.5084   -2.7413    0.4813 H   0  0  0  0  0  0  0  0  0  0  0  0
   -0.3463   -2.9547    3.7725 C   0  0  0  0  0  0  0  0  0  0  0  0
    0.5924   -3.5222    3.5789 H   0  0  0  0  0  0  0  0  0  0  0  0
   -0.7725   -3.3619    4.7130 H   0  0  0  0  0  0  0  0  0  0  0  0
   -1.3177   -3.1791    2.6073 C   0  0  0  0  0  0  0  0  0  0  0  0
   -2.2914   -2.6942    2.8433 H   0  0  0  0  0  0  0  0  0  0  0  0
   -1.5265   -4.2612    2.4740 H   0  0  0  0  0  0  0  0  0  0  0  0
   -0.0130   -1.4664    3.9327 C   0  0  0  0  0  0  0  0  0  0  0  0
    0.7179   -1.3169    4.7546 H   0  0  0  0  0  0  0  0  0  0  0  0
   -0.9317   -0.9079    4.2194 H   0  0  0  0  0  0  0  0  0  0  0  0
    1.6564   -2.4312   -1.1754 C   0  0  0  0  0  0  0  0  0  0  0  0
    2.9612   -0.7152   -0.0518 C   0  0  0  0  0  0  0  0  0  0  0  0
    2.8272   -3.1684   -1.4071 C   0  0  0  0  0  0  0  0  0  0  0  0
    0.6944   -2.8237   -1.5341 H   0  0  0  0  0  0  0  0  0  0  0  0
    3.0132    0.2607    0.4485 H   0  0  0  0  0  0  0  0  0  0  0  0
    4.1272   -1.4604   -0.2732 C   0  0  0  0  0  0  0  0  0  0  0  0
    4.0637   -2.6865   -0.9524 C   0  0  0  0  0  0  0  0  0  0  0  0
    5.0948   -1.0710    0.0749 H   0  0  0  0  0  0  0  0  0  0  0  0
    2.7700   -4.1254   -1.9458 H   0  0  0  0  0  0  0  0  0  0  0  0
    4.9809   -3.2651   -1.1344 H   0  0  0  0  0  0  0  0  0  0  0  0
  1  2  1  0  0  0  0
  1  5  1  0  0  0  0
  3  1  1  0  0  0  0
  4  1  1  0  0  0  0
  5  6  1  0  0  0  0
  5 16  1  0  0  0  0
  5  7  1  0  0  0  0
  7  9  1  0  0  0  0
  7  8  1  0  0  0  0
  9 10  1  0  0  0  0
 11  9  1  0  0  0  0
 12  9  1  0  0  0  0
 13 14  1  0  0  0  0
 13 15  1  0  0  0  0
 13  7  1  0  0  0  0
 16 13  1  0  0  0  0
 16 17  1  0  0  0  0
 16 18  1  0  0  0  0
 20 19  1  0  0  0  0
 21 20  1  0  0  0  0
 22 20  1  0  0  0  0
 23 22  1  0  0  0  0
 24 22  1  0  0  0  0
 25 26  1  0  0  0  0
 25 37  1  0  0  0  0
 27 25  1  0  0  0  0
 28 19  1  0  0  0  0
 29 28  1  0  0  0  0
 30 19  1  0  0  0  0
 31 20  1  0  0  0  0
 31 34  1  0  0  0  0
 32 31  1  0  0  0  0
 33 31  1  0  0  0  0
 34 25  1  0  0  0  0
 35 34  1  0  0  0  0
 36 34  1  0  0  0  0
 37 22  1  0  0  0  0
 38 37  1  0  0  0  0
 39 37  1  0  0  0  0
 40 28  1  0  0  0  0
 41 40  1  0  0  0  0
 42 40  1  0  0  0  0
 43 28  1  0  0  0  0
 44 43  1  0  0  0  0
 45 43  1  0  0  0  0
 46 47  1  0  0  0  0
 46 49  1  0  0  0  0
 46 52  1  0  0  0  0
 48 46  1  0  0  0  0
 49 43  1  0  0  0  0
 50 49  1  0  0  0  0
 51 49  1  0  0  0  0
 52 40  1  0  0  0  0
 53 52  1  0  0  0  0
 54 52  1  0  0  0  0
 55 30  2  0  0  0  0
 56 30  1  0  0  0  0
 57 55  1  0  0  0  0
 57 61  2  0  0  0  0
 58 55  1  0  0  0  0
 59 56  1  0  0  0  0
 60 56  2  0  0  0  0
 61 60  1  0  0  0  0
 62 60  1  0  0  0  0
 63 57  1  0  0  0  0
 64 61  1  0  0  0  0
 16 19  1  0  0  0  0
M  END
>  <DFT-ENERGY>
-2253.62927855

$$$$
