
  CDK     02082419213D

 52 55  0  0  0  0  0  0  0  0999 V2000
    1.1842    2.2819   -2.9831 C   0  0  0  0  0  0  0  0  0  0  0  0
    0.2491    2.8675   -2.9352 H   0  0  0  0  0  0  0  0  0  0  0  0
    1.8530    2.7093   -3.7636 H   0  0  0  0  0  0  0  0  0  0  0  0
    1.7167    2.3925   -2.0166 H   0  0  0  0  0  0  0  0  0  0  0  0
    0.9298    0.8291   -3.3161 C   0  0  0  0  0  0  0  0  0  0  0  0
    1.8291    0.1921   -3.4101 H   0  0  0  0  0  0  0  0  0  0  0  0
   -0.2115    0.3750   -4.0332 C   0  0  0  0  0  0  0  0  0  0  0  0
   -1.0322    1.0997   -4.1756 H   0  0  0  0  0  0  0  0  0  0  0  0
   -0.0675   -0.7432   -5.0405 C   0  0  0  0  0  0  0  0  0  0  0  0
   -1.0365   -1.1895   -5.3335 H   0  0  0  0  0  0  0  0  0  0  0  0
    0.3973   -0.3226   -5.9585 H   0  0  0  0  0  0  0  0  0  0  0  0
    0.6003   -1.5363   -4.6509 H   0  0  0  0  0  0  0  0  0  0  0  0
   -1.4648   -0.9826   -2.6290 C   0  0  0  0  0  0  0  0  0  0  0  0
   -1.2357   -2.0066   -2.9966 H   0  0  0  0  0  0  0  0  0  0  0  0
   -2.4817   -0.5764   -2.8305 H   0  0  0  0  0  0  0  0  0  0  0  0
   -0.2333   -0.0002   -1.6980 Ru  0  0  0  0  0  0  0  0  0  0  0  0
    1.3253   -1.8332   -1.8339 Cl  0  0  0  0  0  0  0  0  0  0  0  0
   -1.7862    1.8340   -1.5767 Cl  0  0  0  0  0  0  0  0  0  0  0  0
   -0.2131   -0.1901    0.6114 P   0  0  0  0  0  0  0  0  0  0  0  0
   -2.4868    1.0267    3.8330 C   0  0  0  0  0  0  0  0  0  0  0  0
    1.0916    1.0946    0.7217 C   0  0  0  0  0  0  0  0  0  0  0  0
   -2.9201    0.3377    1.1404 C   0  0  0  0  0  0  0  0  0  0  0  0
   -1.4004    0.6830    3.0180 C   0  0  0  0  0  0  0  0  0  0  0  0
    0.4287   -1.6859    1.4580 C   0  0  0  0  0  0  0  0  0  0  0  0
   -1.6165    0.3415    1.6680 C   0  0  0  0  0  0  0  0  0  0  0  0
    2.4173    0.7433    0.3815 C   0  0  0  0  0  0  0  0  0  0  0  0
   -4.0040    0.6715    1.9660 C   0  0  0  0  0  0  0  0  0  0  0  0
    1.2988   -1.5946    2.5605 C   0  0  0  0  0  0  0  0  0  0  0  0
    0.7475    2.4440    0.9473 C   0  0  0  0  0  0  0  0  0  0  0  0
    0.3772   -4.1030    1.6948 C   0  0  0  0  0  0  0  0  0  0  0  0
    1.7044   -2.7602    3.2270 C   0  0  0  0  0  0  0  0  0  0  0  0
    3.3978    1.7425    0.3027 C   0  0  0  0  0  0  0  0  0  0  0  0
    3.0600    3.0838    0.5448 C   0  0  0  0  0  0  0  0  0  0  0  0
    1.7363    3.4320    0.8642 C   0  0  0  0  0  0  0  0  0  0  0  0
   -0.0241   -2.9435    1.0187 C   0  0  0  0  0  0  0  0  0  0  0  0
    1.2404   -4.0132    2.7983 C   0  0  0  0  0  0  0  0  0  0  0  0
   -3.7898    1.0176    3.3082 C   0  0  0  0  0  0  0  0  0  0  0  0
   -2.3156    1.2993    4.8845 H   0  0  0  0  0  0  0  0  0  0  0  0
   -3.0725    0.1043    0.0785 H   0  0  0  0  0  0  0  0  0  0  0  0
   -0.3825    0.6821    3.4333 H   0  0  0  0  0  0  0  0  0  0  0  0
    2.6609   -0.3044    0.1523 H   0  0  0  0  0  0  0  0  0  0  0  0
   -5.0222    0.6712    1.5511 H   0  0  0  0  0  0  0  0  0  0  0  0
    1.6747   -0.6145    2.8884 H   0  0  0  0  0  0  0  0  0  0  0  0
   -0.2958    2.7125    1.1615 H   0  0  0  0  0  0  0  0  0  0  0  0
    0.0263   -5.0852    1.3469 H   0  0  0  0  0  0  0  0  0  0  0  0
    2.3893   -2.6877    4.0844 H   0  0  0  0  0  0  0  0  0  0  0  0
    4.4297    1.4704    0.0381 H   0  0  0  0  0  0  0  0  0  0  0  0
    3.8307    3.8653    0.4753 H   0  0  0  0  0  0  0  0  0  0  0  0
    1.4691    4.4842    1.0385 H   0  0  0  0  0  0  0  0  0  0  0  0
   -0.6706   -3.0069    0.1325 H   0  0  0  0  0  0  0  0  0  0  0  0
    1.5610   -4.9258    3.3215 H   0  0  0  0  0  0  0  0  0  0  0  0
   -4.6416    1.2844    3.9506 H   0  0  0  0  0  0  0  0  0  0  0  0
  1  2  1  0  0  0  0
  1  5  1  0  0  0  0
  1  3  1  0  0  0  0
  1  4  1  0  0  0  0
  5  6  1  0  0  0  0
  5 16  1  0  0  0  0
  5  7  1  0  0  0  0
  7  9  1  0  0  0  0
  7  8  1  0  0  0  0
  9 10  1  0  0  0  0
  9 11  1  0  0  0  0
  9 12  1  0  0  0  0
 13 14  1  0  0  0  0
 13 15  1  0  0  0  0
  7 13  1  0  0  0  0
 13 16  1  0  0  0  0
 16 17  1  0  0  0  0
 16 18  1  0  0  0  0
 20 23  1  0  0  0  0
 19 21  1  0  0  0  0
 22 25  1  0  0  0  0
 23 25  2  0  0  0  0
 19 24  1  0  0  0  0
 19 25  1  0  0  0  0
 21 26  1  0  0  0  0
 22 27  2  0  0  0  0
 24 28  2  0  0  0  0
 21 29  2  0  0  0  0
 30 35  2  0  0  0  0
 28 31  1  0  0  0  0
 26 32  2  0  0  0  0
 32 33  1  0  0  0  0
 29 34  1  0  0  0  0
 24 35  1  0  0  0  0
 30 36  1  0  0  0  0
 20 37  2  0  0  0  0
 20 38  1  0  0  0  0
 22 39  1  0  0  0  0
 23 40  1  0  0  0  0
 26 41  1  0  0  0  0
 27 42  1  0  0  0  0
 28 43  1  0  0  0  0
 29 44  1  0  0  0  0
 30 45  1  0  0  0  0
 31 46  1  0  0  0  0
 32 47  1  0  0  0  0
 33 48  1  0  0  0  0
 34 49  1  0  0  0  0
 35 50  1  0  0  0  0
 36 51  1  0  0  0  0
 37 52  1  0  0  0  0
 27 37  1  0  0  0  0
 31 36  2  0  0  0  0
 33 34  2  0  0  0  0
 16 19  1  0  0  0  0
M  END
>  <DFT-ENERGY>
-2246.43500769

$$$$
