CEBHEW_A2
  CDK     02082410273D

 60 64  0  0  0  0  0  0  0  0999 V2000
   -0.5763    0.1590   -0.6298 Ru  0  0  0  0  0  0  0  0  0  0  0  0
   -2.3507    0.0495   -2.0190 O   0  0  0  0  0  0  0  0  0  0  0  0
   -1.7267   -0.8471    0.3743 C   0  0  0  0  0  0  0  0  0  0  0  0
   -1.4763   -1.1251    1.3970 H   0  0  0  0  0  0  0  0  0  0  0  0
   -2.6335    0.8087   -3.2448 C   0  0  0  0  0  0  0  0  0  0  0  0
   -2.9969    0.0885   -4.0080 H   0  0  0  0  0  0  0  0  0  0  0  0
   -1.2397    1.3375   -3.5602 C   0  0  0  0  0  0  0  0  0  0  0  0
   -1.2051    1.8412   -4.5303 H   0  0  0  0  0  0  0  0  0  0  0  0
   -0.9036    2.0599   -2.7907 H   0  0  0  0  0  0  0  0  0  0  0  0
   -0.5049    0.5078   -3.5761 H   0  0  0  0  0  0  0  0  0  0  0  0
   -3.6406    1.8961   -2.9163 C   0  0  0  0  0  0  0  0  0  0  0  0
   -4.6509    1.5036   -2.7606 H   0  0  0  0  0  0  0  0  0  0  0  0
   -3.3515    2.4080   -1.9774 H   0  0  0  0  0  0  0  0  0  0  0  0
   -3.6875    2.6597   -3.6992 H   0  0  0  0  0  0  0  0  0  0  0  0
   -3.2919   -0.8085   -1.5140 C   0  0  0  0  0  0  0  0  0  0  0  0
   -4.4373   -1.2286   -2.1670 C   0  0  0  0  0  0  0  0  0  0  0  0
   -4.6770   -0.8925   -3.1732 H   0  0  0  0  0  0  0  0  0  0  0  0
   -5.2856   -2.1136   -1.5095 C   0  0  0  0  0  0  0  0  0  0  0  0
   -6.1889   -2.4578   -2.0184 H   0  0  0  0  0  0  0  0  0  0  0  0
   -5.0070   -2.5690   -0.2242 C   0  0  0  0  0  0  0  0  0  0  0  0
   -5.6906   -3.2574    0.2701 H   0  0  0  0  0  0  0  0  0  0  0  0
   -3.8617   -2.1373    0.4174 C   0  0  0  0  0  0  0  0  0  0  0  0
   -3.6470   -2.4793    1.4287 H   0  0  0  0  0  0  0  0  0  0  0  0
   -2.9782   -1.2657   -0.2220 C   0  0  0  0  0  0  0  0  0  0  0  0
   -1.3025    2.2883   -0.0752 Cl  0  0  0  0  0  0  0  0  0  0  0  0
    0.3501   -1.4924   -1.9885 Cl  0  0  0  0  0  0  0  0  0  0  0  0
    1.0918    0.1478    0.8175 P   0  0  0  0  0  0  0  0  0  0  0  0
    1.9905   -2.4564    3.9358 C   0  0  0  0  0  0  0  0  0  0  0  0
    1.0831    1.5160    2.1018 C   0  0  0  0  0  0  0  0  0  0  0  0
    1.0782   -2.6300    1.2940 C   0  0  0  0  0  0  0  0  0  0  0  0
    1.7855   -1.2894    3.1904 C   0  0  0  0  0  0  0  0  0  0  0  0
    2.7538    0.3248   -0.0359 C   0  0  0  0  0  0  0  0  0  0  0  0
    1.3321   -1.3861    1.8736 C   0  0  0  0  0  0  0  0  0  0  0  0
   -0.1413    1.8193    2.7028 C   0  0  0  0  0  0  0  0  0  0  0  0
    1.2904   -3.7950    2.0423 C   0  0  0  0  0  0  0  0  0  0  0  0
    2.7586    0.8267   -1.3385 C   0  0  0  0  0  0  0  0  0  0  0  0
    2.2397    2.2169    2.4449 C   0  0  0  0  0  0  0  0  0  0  0  0
    5.1561    0.0957   -0.0872 C   0  0  0  0  0  0  0  0  0  0  0  0
    3.9778    0.9790   -2.0123 C   0  0  0  0  0  0  0  0  0  0  0  0
   -0.2009    2.8246    3.6767 C   0  0  0  0  0  0  0  0  0  0  0  0
    0.9557    3.5235    4.0342 C   0  0  0  0  0  0  0  0  0  0  0  0
    2.1743    3.2219    3.4176 C   0  0  0  0  0  0  0  0  0  0  0  0
    3.9412   -0.0556    0.5914 C   0  0  0  0  0  0  0  0  0  0  0  0
    5.1738    0.6168   -1.3856 C   0  0  0  0  0  0  0  0  0  0  0  0
    1.7467   -3.7082    3.3607 C   0  0  0  0  0  0  0  0  0  0  0  0
    2.3405   -2.3890    4.9642 H   0  0  0  0  0  0  0  0  0  0  0  0
    0.7133   -2.7253    0.2605 H   0  0  0  0  0  0  0  0  0  0  0  0
    1.9807   -0.3244    3.6653 H   0  0  0  0  0  0  0  0  0  0  0  0
   -1.0676    1.3025    2.4237 H   0  0  0  0  0  0  0  0  0  0  0  0
    1.0994   -4.7684    1.5918 H   0  0  0  0  0  0  0  0  0  0  0  0
    1.8308    1.0922   -1.8650 H   0  0  0  0  0  0  0  0  0  0  0  0
    3.2015    2.0159    1.9689 H   0  0  0  0  0  0  0  0  0  0  0  0
    6.0873   -0.1995    0.3930 H   0  0  0  0  0  0  0  0  0  0  0  0
    3.9906    1.3697   -3.0287 H   0  0  0  0  0  0  0  0  0  0  0  0
   -1.1542    3.0704    4.1419 H   0  0  0  0  0  0  0  0  0  0  0  0
    0.9063    4.3090    4.7874 H   0  0  0  0  0  0  0  0  0  0  0  0
    3.0721    3.7744    3.6876 H   0  0  0  0  0  0  0  0  0  0  0  0
    3.9492   -0.4808    1.5977 H   0  0  0  0  0  0  0  0  0  0  0  0
    6.1207    0.7330   -1.9122 H   0  0  0  0  0  0  0  0  0  0  0  0
    1.9114   -4.6154    3.9413 H   0  0  0  0  0  0  0  0  0  0  0  0
  2  1  1  0  0  0  0
  3  1  2  0  0  0  0
  4  3  1  0  0  0  0
  5  2  1  0  0  0  0
  6  5  1  0  0  0  0
  7  5  1  0  0  0  0
  8  7  1  0  0  0  0
  9  7  1  0  0  0  0
 10  7  1  0  0  0  0
 11  5  1  0  0  0  0
 12 11  1  0  0  0  0
 13 11  1  0  0  0  0
 14 11  1  0  0  0  0
 15  2  1  0  0  0  0
 15 24  1  0  0  0  0
 16 15  2  0  0  0  0
 17 16  1  0  0  0  0
 18 16  1  0  0  0  0
 19 18  1  0  0  0  0
 20 18  2  0  0  0  0
 21 20  1  0  0  0  0
 22 20  1  0  0  0  0
 22 24  2  0  0  0  0
 23 22  1  0  0  0  0
 24  3  1  0  0  0  0
  1 25  1  0  0  0  0
  1 26  1  0  0  0  0
 28 31  1  0  0  0  0
 29 27  1  0  0  0  0
 30 33  1  0  0  0  0
 31 33  2  0  0  0  0
 32 27  1  0  0  0  0
 33 27  1  0  0  0  0
 34 29  1  0  0  0  0
 35 30  2  0  0  0  0
 36 32  2  0  0  0  0
 37 29  2  0  0  0  0
 38 43  2  0  0  0  0
 39 36  1  0  0  0  0
 40 34  2  0  0  0  0
 41 40  1  0  0  0  0
 42 37  1  0  0  0  0
 43 32  1  0  0  0  0
 44 38  1  0  0  0  0
 45 28  2  0  0  0  0
 46 28  1  0  0  0  0
 47 30  1  0  0  0  0
 48 31  1  0  0  0  0
 49 34  1  0  0  0  0
 50 35  1  0  0  0  0
 51 36  1  0  0  0  0
 52 37  1  0  0  0  0
 53 38  1  0  0  0  0
 54 39  1  0  0  0  0
 55 40  1  0  0  0  0
 56 41  1  0  0  0  0
 57 42  1  0  0  0  0
 58 43  1  0  0  0  0
 59 44  1  0  0  0  0
 60 45  1  0  0  0  0
 35 45  1  0  0  0  0
 39 44  2  0  0  0  0
 41 42  2  0  0  0  0
  1 27  1  0  0  0  0
M  END
> <FrozenCore-PM6_ENERGY>
741.385

> <RMSD_CONF_CG-CS>
0.365095

> <RMSD_CONF_GO-CS>
0.000000

> <UID>


> <freeEnergyA>
-2513.17702095

> <freeEnergyF>
-2513.15927692

> <freeEnergyE>
-2513.17702095

> <freeEnergyC>
-2167.88655093

> <freeEnergyL>
-1035.34016078

> <freeEnergyX>
-2246.43500759

> <freeEnergyZ>
-2167.89988637

> <freeEnergyD>
-2167.92026418

> <G_Propene>
-117.738020895

> <G_Ethene>
-78.4716324751

> <G_HoveydaProd>
-502.204109499

> <G_SIMes>
-924.27249048

> <G_HG_RuCl2_SIMes>
-2402.13728523

> <DG_referenceProductionBarrier>
0.01468968

> <hartree_to_kcalmol>
627.49467516

> <DFT_IDENTIFIER>
1707462519556

> <DFT_MACHINE>
158.36.42.38

> <XTB_IDENTIFIER>
NREC

> <XTB_MACHINE>
NREC

> <DE_Synth>
17.5288002028310328

> <DESCRIPTOR_DEFINITION_1>
desc1=( echo "1 * ( e( $hartree_to_kcalmol * ( ( $freeEnergyZ - $freeEnergyD ) - ( $freeEnergyX + 2*$G_Ethene - $freeEnergyD - 2*$G_Propene ) - $DDG_reference_HGII ) / $kT ) ) " | bc -l )

> <DESCRIPTOR_DEFINITION_2>
desc2=$( echo "1 * ( $hartree_to_kcalmol * ( ( $freeEnergyZ - $freeEnergyD ) - ( $freeEnergyX + 2*$G_Ethene - $freeEnergyD - 2*$G_Propene ) ) )" | bc -l )

> <DESCRIPTOR_DEFINITION_3>
desc3=$( echo "1 * $hartree_to_kcalmol * ( $DG_referenceProductionBarrier - ( $freeEnergyX + 2*$G_Ethene - $freeEnergyD - 2*$G_Propene ) )" | bc -l )

> <WEIGHT_DEFINITION_1>
w1=$( echo "1 / ( 1 + e( $hartree_to_kcalmol * ( ( ( $freeEnergyX + 2*$G_Ethene - $freeEnergyD - 2*$G_Propene ) ) - ( $DG_referenceProductionBarrier + $magnitude4 ) ) / $kT ) )" | bc -l )

> <WEIGHT_DEFINITION_2>
w2=$( echo "1 / ( 1 + e( $hartree_to_kcalmol * ( ABS( $freeEnergyC + $G_HoveydaProd - $freeEnergyA - 2*${G_Ethene} - $DG_referencePrecursorStabilityHII ) - ( $DDG_referencePrecursorStability + $magnitude1 ) ) / $kT ) )" | bc -l )

> <WEIGHT_DEFINITION_3>
w3=$( echo "1 / ( 1 + e( $hartree_to_kcalmol * ( ( $freeEnergyE + $G_PCy3 - $G_HI_precursor - $freeEnergyL ) - $magnitude1 ) / $kT ) )" | bc -l )

> <WEIGHT_DEFINITION_4>
w4=$( echo "1 / ( 1 + e( $hartree_to_kcalmol * ( - ( $freeEnergyF - $freeEnergyA ) + $magnitude2 ) / $kT ) )" | bc -l )

> <FITNESS_DEFINITION>
fitness=$( echo "( $desc1 + $desc2 + $desc3 ) * $w1 * $w2 * $w3 * $w4" | bc -l )

> <DESCRIPTOR_1>
.00000000195548228296

> <DESCRIPTOR_2>
1.471086092050535832

> <DESCRIPTOR_3>
2.659319295854704200

> <WEIGHT_1>
.99999860634260437286

> <WEIGHT_2>
.00000015280556309717

> <WEIGHT_3>
.04439635662094359561

> <WEIGHT_4>
.99999830318623856683

> <FITNESS>
.00000002802062599902

$$$$
