
  CDK     08142400023D

 59 63  0  0  0  0  0  0  0  0999 V2000
    0.9664    0.6128   -2.9555 H   0  0  0  0  0  0  0  0  0  0  0  0
    2.1858    0.4901   -2.8461 C   0  0  0  0  0  0  0  0  0  0  0  0
    2.2322    0.4769   -3.9581 H   0  0  0  0  0  0  0  0  0  0  0  0
    2.2604   -0.7446   -2.0103 C   0  0  0  0  0  0  0  0  0  0  0  0
    3.1433   -0.8714   -1.3621 H   0  0  0  0  0  0  0  0  0  0  0  0
    1.8721   -1.6723   -2.4650 H   0  0  0  0  0  0  0  0  0  0  0  0
    0.8389    0.5016   -1.1897 Ru  0  0  0  0  0  0  0  0  0  0  0  0
    2.4199    1.7018   -2.0543 C   0  0  0  0  0  0  0  0  0  0  0  0
    3.2718    1.7439   -1.3653 H   0  0  0  0  0  0  0  0  0  0  0  0
    2.1010    2.6630   -2.4925 H   0  0  0  0  0  0  0  0  0  0  0  0
    2.3369    0.8368    0.6986 Cl  0  0  0  0  0  0  0  0  0  0  0  0
   -0.9913   -0.2345   -2.5528 Cl  0  0  0  0  0  0  0  0  0  0  0  0
   -0.9139    0.7236    1.3467 N   0  0  0  0  0  0  0  0  0  0  0  0
   -0.2986   -0.0947    0.4299 C   0  0  0  0  0  0  0  0  0  0  0  0
   -0.6631   -1.3716    0.7836 N   0  0  0  0  0  0  0  0  0  0  0  0
   -1.4867   -1.3485    1.9147 C   0  0  0  0  0  0  0  0  0  0  0  0
   -1.6486   -0.0310    2.2653 C   0  0  0  0  0  0  0  0  0  0  0  0
   -2.0911   -2.7597    2.6620 Cl  0  0  0  0  0  0  0  0  0  0  0  0
   -2.5801    0.6620    3.5171 Cl  0  0  0  0  0  0  0  0  0  0  0  0
    0.0251    2.7874    2.3000 C   0  0  0  0  0  0  0  0  0  0  0  0
   -0.8085    2.1619    1.3470 C   0  0  0  0  0  0  0  0  0  0  0  0
   -1.5705    2.8866    0.4053 C   0  0  0  0  0  0  0  0  0  0  0  0
   -1.4024    4.2827    0.3772 C   0  0  0  0  0  0  0  0  0  0  0  0
   -0.5351    4.9458    1.2614 C   0  0  0  0  0  0  0  0  0  0  0  0
    0.1491    4.1838    2.2254 C   0  0  0  0  0  0  0  0  0  0  0  0
   -1.9842    4.8672   -0.3520 H   0  0  0  0  0  0  0  0  0  0  0  0
    0.8074    4.6904    2.9479 H   0  0  0  0  0  0  0  0  0  0  0  0
    0.7179    2.0120    3.3879 C   0  0  0  0  0  0  0  0  0  0  0  0
    1.5828    2.5800    3.7783 H   0  0  0  0  0  0  0  0  0  0  0  0
    1.0904    1.0399    3.0166 H   0  0  0  0  0  0  0  0  0  0  0  0
    0.0242    1.8246    4.2349 H   0  0  0  0  0  0  0  0  0  0  0  0
   -2.5677    2.2111   -0.4980 C   0  0  0  0  0  0  0  0  0  0  0  0
   -3.2066    1.5039    0.0698 H   0  0  0  0  0  0  0  0  0  0  0  0
   -2.0834    1.6184   -1.3020 H   0  0  0  0  0  0  0  0  0  0  0  0
   -3.2255    2.9611   -0.9753 H   0  0  0  0  0  0  0  0  0  0  0  0
   -0.3375    6.4383    1.1812 C   0  0  0  0  0  0  0  0  0  0  0  0
   -1.1696    6.9327    0.6441 H   0  0  0  0  0  0  0  0  0  0  0  0
    0.6001    6.6814    0.6372 H   0  0  0  0  0  0  0  0  0  0  0  0
   -0.2540    6.8928    2.1883 H   0  0  0  0  0  0  0  0  0  0  0  0
   -0.3195   -2.5706    0.0569 C   0  0  0  0  0  0  0  0  0  0  0  0
   -1.2870   -3.1377   -0.7986 C   0  0  0  0  0  0  0  0  0  0  0  0
   -0.9093   -4.2730   -1.5351 C   0  0  0  0  0  0  0  0  0  0  0  0
    0.3695   -4.8446   -1.4202 C   0  0  0  0  0  0  0  0  0  0  0  0
    1.2749   -4.2798   -0.5043 C   0  0  0  0  0  0  0  0  0  0  0  0
    0.9516   -3.1465    0.2613 C   0  0  0  0  0  0  0  0  0  0  0  0
   -1.6435   -4.7211   -2.2221 H   0  0  0  0  0  0  0  0  0  0  0  0
    2.2653   -4.7406   -0.3664 H   0  0  0  0  0  0  0  0  0  0  0  0
   -2.6873   -2.5927   -0.8892 C   0  0  0  0  0  0  0  0  0  0  0  0
   -2.6953   -1.4871   -0.8910 H   0  0  0  0  0  0  0  0  0  0  0  0
   -3.2992   -2.9437   -0.0310 H   0  0  0  0  0  0  0  0  0  0  0  0
   -3.1793   -2.9356   -1.8182 H   0  0  0  0  0  0  0  0  0  0  0  0
    0.7641   -6.0298   -2.2648 C   0  0  0  0  0  0  0  0  0  0  0  0
    1.5241   -6.6566   -1.7589 H   0  0  0  0  0  0  0  0  0  0  0  0
    1.2033   -5.6967   -3.2297 H   0  0  0  0  0  0  0  0  0  0  0  0
   -0.1084   -6.6675   -2.5070 H   0  0  0  0  0  0  0  0  0  0  0  0
    1.9043   -2.6004    1.2866 C   0  0  0  0  0  0  0  0  0  0  0  0
    1.4327   -2.5806    2.2917 H   0  0  0  0  0  0  0  0  0  0  0  0
    2.2048   -1.5559    1.0598 H   0  0  0  0  0  0  0  0  0  0  0  0
    2.8132   -3.2273    1.3491 H   0  0  0  0  0  0  0  0  0  0  0  0
  1  2  1  0  0  0  0
  1  7  1  0  0  0  0
  2  3  1  0  0  0  0
  2  4  1  0  0  0  0
  4  5  1  0  0  0  0
  6  4  1  0  0  0  0
  7  8  1  0  0  0  0
  7  4  1  0  0  0  0
  8  2  1  0  0  0  0
  8  9  1  0  0  0  0
 10  8  1  0  0  0  0
  7 11  1  0  0  0  0
  7 12  1  0  0  0  0
 13 14  1  0  0  0  0
 13 17  1  0  0  0  0
 14 15  1  0  0  0  0
 15 16  1  0  0  0  0
 16 17  2  0  0  0  0
 16 18  1  0  0  0  0
 17 19  1  0  0  0  0
 20 21  2  0  0  0  0
 20 25  1  0  0  0  0
 21 22  1  0  0  0  0
 22 23  2  0  0  0  0
 23 24  1  0  0  0  0
 23 26  1  0  0  0  0
 24 25  2  0  0  0  0
 25 27  1  0  0  0  0
 13 21  1  0  0  0  0
 28 29  1  0  0  0  0
 28 30  1  0  0  0  0
 28 31  1  0  0  0  0
 20 28  1  0  0  0  0
 32 33  1  0  0  0  0
 32 34  1  0  0  0  0
 32 35  1  0  0  0  0
 22 32  1  0  0  0  0
 36 37  1  0  0  0  0
 36 38  1  0  0  0  0
 36 39  1  0  0  0  0
 24 36  1  0  0  0  0
 40 41  2  0  0  0  0
 40 45  1  0  0  0  0
 41 42  1  0  0  0  0
 42 43  2  0  0  0  0
 42 46  1  0  0  0  0
 43 44  1  0  0  0  0
 44 45  2  0  0  0  0
 44 47  1  0  0  0  0
 15 40  1  0  0  0  0
 48 49  1  0  0  0  0
 48 50  1  0  0  0  0
 48 51  1  0  0  0  0
 41 48  1  0  0  0  0
 52 53  1  0  0  0  0
 52 54  1  0  0  0  0
 52 55  1  0  0  0  0
 43 52  1  0  0  0  0
 56 57  1  0  0  0  0
 56 58  1  0  0  0  0
 56 59  1  0  0  0  0
 45 56  1  0  0  0  0
  7 14  1  0  0  0  0
M  END
>  <DFT-ENERGY>
-2974.5129939

$$$$
