
  CDK     08132419403D

 65 68  0  0  0  0  0  0  0  0999 V2000
   -0.2484   -2.7602   -1.7249 C   0  0  0  0  0  0  0  0  0  0  0  0
    0.7798   -2.7498   -2.1272 H   0  0  0  0  0  0  0  0  0  0  0  0
   -0.8200   -3.6020   -2.1760 H   0  0  0  0  0  0  0  0  0  0  0  0
   -0.7580   -1.8288   -2.0520 H   0  0  0  0  0  0  0  0  0  0  0  0
   -0.2771   -2.9074   -0.2218 C   0  0  0  0  0  0  0  0  0  0  0  0
   -1.2824   -3.0160    0.2256 H   0  0  0  0  0  0  0  0  0  0  0  0
    0.7910   -3.4214    0.5615 C   0  0  0  0  0  0  0  0  0  0  0  0
    1.7607   -3.5664    0.0542 H   0  0  0  0  0  0  0  0  0  0  0  0
    0.4900   -4.2799    1.7698 C   0  0  0  0  0  0  0  0  0  0  0  0
    1.3587   -4.3897    2.4461 H   0  0  0  0  0  0  0  0  0  0  0  0
    0.2113   -5.2962    1.4169 H   0  0  0  0  0  0  0  0  0  0  0  0
   -0.3664   -3.8687    2.3395 H   0  0  0  0  0  0  0  0  0  0  0  0
    1.5891   -1.7007    1.8987 C   0  0  0  0  0  0  0  0  0  0  0  0
    1.1684   -1.9303    2.9009 H   0  0  0  0  0  0  0  0  0  0  0  0
    2.6823   -1.8423    1.7511 H   0  0  0  0  0  0  0  0  0  0  0  0
    0.5402   -1.0563    0.5486 Ru  0  0  0  0  0  0  0  0  0  0  0  0
   -1.3602   -1.1474    2.0276 Cl  0  0  0  0  0  0  0  0  0  0  0  0
    2.4594   -1.0662   -0.9039 Cl  0  0  0  0  0  0  0  0  0  0  0  0
   -0.1673    1.7388   -0.3678 N   0  0  0  0  0  0  0  0  0  0  0  0
    0.4769    0.9596    0.5618 C   0  0  0  0  0  0  0  0  0  0  0  0
    1.0204    1.8440    1.4631 N   0  0  0  0  0  0  0  0  0  0  0  0
    0.7184    3.1621    1.0926 C   0  0  0  0  0  0  0  0  0  0  0  0
   -0.0324    3.0959   -0.0535 C   0  0  0  0  0  0  0  0  0  0  0  0
    1.2508    4.5190    1.9817 Cl  0  0  0  0  0  0  0  0  0  0  0  0
   -0.7284    4.3372   -0.9972 Cl  0  0  0  0  0  0  0  0  0  0  0  0
   -0.1345    1.0706   -2.7263 C   0  0  0  0  0  0  0  0  0  0  0  0
   -0.8496    1.1926   -1.5138 C   0  0  0  0  0  0  0  0  0  0  0  0
   -2.2087    0.8321   -1.3834 C   0  0  0  0  0  0  0  0  0  0  0  0
   -2.8239    0.2366   -2.4996 C   0  0  0  0  0  0  0  0  0  0  0  0
   -2.1350    0.0315   -3.7081 C   0  0  0  0  0  0  0  0  0  0  0  0
   -0.8028    0.4747   -3.8084 C   0  0  0  0  0  0  0  0  0  0  0  0
   -3.8804   -0.0619   -2.4202 H   0  0  0  0  0  0  0  0  0  0  0  0
   -0.2624    0.3580   -4.7602 H   0  0  0  0  0  0  0  0  0  0  0  0
    1.2789    1.5650   -2.8505 C   0  0  0  0  0  0  0  0  0  0  0  0
    1.3668    2.6229   -2.5296 H   0  0  0  0  0  0  0  0  0  0  0  0
    1.6280    1.4910   -3.8970 H   0  0  0  0  0  0  0  0  0  0  0  0
    1.9552    0.9559   -2.2133 H   0  0  0  0  0  0  0  0  0  0  0  0
   -2.9718    1.0999   -0.1169 C   0  0  0  0  0  0  0  0  0  0  0  0
   -2.6051    0.4581    0.7137 H   0  0  0  0  0  0  0  0  0  0  0  0
   -4.0495    0.8996   -0.2618 H   0  0  0  0  0  0  0  0  0  0  0  0
   -2.8554    2.1552    0.2042 H   0  0  0  0  0  0  0  0  0  0  0  0
   -2.8033   -0.6566   -4.8710 C   0  0  0  0  0  0  0  0  0  0  0  0
   -2.5556   -1.7398   -4.8790 H   0  0  0  0  0  0  0  0  0  0  0  0
   -2.4660   -0.2397   -5.8402 H   0  0  0  0  0  0  0  0  0  0  0  0
   -3.9058   -0.5714   -4.8183 H   0  0  0  0  0  0  0  0  0  0  0  0
    1.7896    1.4717    2.6224 C   0  0  0  0  0  0  0  0  0  0  0  0
    1.1221    1.3367    3.8588 C   0  0  0  0  0  0  0  0  0  0  0  0
    1.8887    0.9228    4.9600 C   0  0  0  0  0  0  0  0  0  0  0  0
    3.2683    0.6638    4.8521 C   0  0  0  0  0  0  0  0  0  0  0  0
    3.8937    0.8568    3.6085 C   0  0  0  0  0  0  0  0  0  0  0  0
    3.1764    1.2715    2.4714 C   0  0  0  0  0  0  0  0  0  0  0  0
    1.3885    0.8039    5.9336 H   0  0  0  0  0  0  0  0  0  0  0  0
    4.9776    0.6884    3.5150 H   0  0  0  0  0  0  0  0  0  0  0  0
   -0.3486    1.6200    3.9822 C   0  0  0  0  0  0  0  0  0  0  0  0
   -0.9319    0.9014    3.3670 H   0  0  0  0  0  0  0  0  0  0  0  0
   -0.5943    2.6435    3.6314 H   0  0  0  0  0  0  0  0  0  0  0  0
   -0.6789    1.5285    5.0335 H   0  0  0  0  0  0  0  0  0  0  0  0
    4.0517    0.1918    6.0513 C   0  0  0  0  0  0  0  0  0  0  0  0
    5.1420    0.2180    5.8636 H   0  0  0  0  0  0  0  0  0  0  0  0
    3.7809   -0.8523    6.3159 H   0  0  0  0  0  0  0  0  0  0  0  0
    3.8391    0.8142    6.9439 H   0  0  0  0  0  0  0  0  0  0  0  0
    3.8558    1.4889    1.1487 C   0  0  0  0  0  0  0  0  0  0  0  0
    3.5999    2.4802    0.7215 H   0  0  0  0  0  0  0  0  0  0  0  0
    3.5387    0.7219    0.4077 H   0  0  0  0  0  0  0  0  0  0  0  0
    4.9548    1.4340    1.2584 H   0  0  0  0  0  0  0  0  0  0  0  0
  1  2  1  0  0  0  0
  1  5  1  0  0  0  0
  1  3  1  0  0  0  0
  1  4  1  0  0  0  0
  5  6  1  0  0  0  0
  5 16  1  0  0  0  0
  5  7  1  0  0  0  0
  7  9  1  0  0  0  0
  7  8  1  0  0  0  0
  9 10  1  0  0  0  0
  9 11  1  0  0  0  0
  9 12  1  0  0  0  0
 13 14  1  0  0  0  0
 13 15  1  0  0  0  0
  7 13  1  0  0  0  0
 13 16  1  0  0  0  0
 16 17  1  0  0  0  0
 16 18  1  0  0  0  0
 19 20  1  0  0  0  0
 19 23  1  0  0  0  0
 20 21  1  0  0  0  0
 21 22  1  0  0  0  0
 22 23  2  0  0  0  0
 22 24  1  0  0  0  0
 23 25  1  0  0  0  0
 26 27  2  0  0  0  0
 26 31  1  0  0  0  0
 27 28  1  0  0  0  0
 28 29  2  0  0  0  0
 29 30  1  0  0  0  0
 29 32  1  0  0  0  0
 30 31  2  0  0  0  0
 31 33  1  0  0  0  0
 19 27  1  0  0  0  0
 34 35  1  0  0  0  0
 34 36  1  0  0  0  0
 34 37  1  0  0  0  0
 26 34  1  0  0  0  0
 38 39  1  0  0  0  0
 38 40  1  0  0  0  0
 38 41  1  0  0  0  0
 28 38  1  0  0  0  0
 42 43  1  0  0  0  0
 42 44  1  0  0  0  0
 42 45  1  0  0  0  0
 30 42  1  0  0  0  0
 46 47  2  0  0  0  0
 46 51  1  0  0  0  0
 47 48  1  0  0  0  0
 48 49  2  0  0  0  0
 48 52  1  0  0  0  0
 49 50  1  0  0  0  0
 50 51  2  0  0  0  0
 50 53  1  0  0  0  0
 21 46  1  0  0  0  0
 54 55  1  0  0  0  0
 54 56  1  0  0  0  0
 54 57  1  0  0  0  0
 47 54  1  0  0  0  0
 58 59  1  0  0  0  0
 58 60  1  0  0  0  0
 58 61  1  0  0  0  0
 49 58  1  0  0  0  0
 62 63  1  0  0  0  0
 62 64  1  0  0  0  0
 62 65  1  0  0  0  0
 51 62  1  0  0  0  0
 16 20  1  0  0  0  0
M  END
>  <DFT-ENERGY>
-3053.06925195

$$$$
