
  CDK     08152413383D

 85 88  0  0  0  0  0  0  0  0999 V2000
    2.1318    1.2481   -0.2024 Ru  0  0  0  0  0  0  0  0  0  0  0  0
    3.7462    1.1411   -1.3076 C   0  0  0  0  0  0  0  0  0  0  0  0
    3.6119    1.4076   -2.3706 H   0  0  0  0  0  0  0  0  0  0  0  0
    4.0685    2.3829   -0.3831 C   0  0  0  0  0  0  0  0  0  0  0  0
    4.1909    3.2502   -1.0570 H   0  0  0  0  0  0  0  0  0  0  0  0
    2.9659    2.7882    0.6756 C   0  0  0  0  0  0  0  0  0  0  0  0
    3.2800    2.6255    1.7214 H   0  0  0  0  0  0  0  0  0  0  0  0
    2.4956    3.7631    0.4532 H   0  0  0  0  0  0  0  0  0  0  0  0
    4.9724    2.1175    0.1946 H   0  0  0  0  0  0  0  0  0  0  0  0
    4.3967    0.2722   -1.1007 H   0  0  0  0  0  0  0  0  0  0  0  0
    1.1991    2.7085   -1.8584 Cl  0  0  0  0  0  0  0  0  0  0  0  0
    3.1791   -0.1464    1.4427 Cl  0  0  0  0  0  0  0  0  0  0  0  0
    0.4178    0.2423   -0.0396 C   0  0  0  0  0  0  0  0  0  0  0  0
   -0.0345   -0.6550   -0.9444 N   0  0  0  0  0  0  0  0  0  0  0  0
   -1.3367   -1.2641   -0.5242 C   0  0  0  0  0  0  0  0  0  0  0  0
   -1.6562   -0.5031    0.8121 C   0  0  0  0  0  0  0  0  0  0  0  0
   -0.4484    0.3642    0.9914 N   0  0  0  0  0  0  0  0  0  0  0  0
   -2.1001   -1.0011   -1.2854 H   0  0  0  0  0  0  0  0  0  0  0  0
   -1.6829   -1.2311    1.6490 H   0  0  0  0  0  0  0  0  0  0  0  0
   -0.0502    1.0730    2.1917 C   0  0  0  0  0  0  0  0  0  0  0  0
    0.8597    2.4250    4.5104 C   0  0  0  0  0  0  0  0  0  0  0  0
    0.3749    0.3292    3.3228 C   0  0  0  0  0  0  0  0  0  0  0  0
   -0.0266    2.4907    2.2099 C   0  0  0  0  0  0  0  0  0  0  0  0
    0.4431    3.1304    3.3748 C   0  0  0  0  0  0  0  0  0  0  0  0
    0.8065    1.0218    4.4622 C   0  0  0  0  0  0  0  0  0  0  0  0
    0.4717    4.2312    3.3847 H   0  0  0  0  0  0  0  0  0  0  0  0
    1.1469    0.4366    5.3305 H   0  0  0  0  0  0  0  0  0  0  0  0
    0.5992   -0.7532   -2.2446 C   0  0  0  0  0  0  0  0  0  0  0  0
    1.8767   -0.8105   -4.7740 C   0  0  0  0  0  0  0  0  0  0  0  0
    1.8377   -1.4287   -2.3868 C   0  0  0  0  0  0  0  0  0  0  0  0
   -0.0040   -0.1097   -3.3562 C   0  0  0  0  0  0  0  0  0  0  0  0
    0.6408   -0.1652   -4.5993 C   0  0  0  0  0  0  0  0  0  0  0  0
    2.4513   -1.4271   -3.6558 C   0  0  0  0  0  0  0  0  0  0  0  0
    0.1722    0.3482   -5.4532 H   0  0  0  0  0  0  0  0  0  0  0  0
    3.4187   -1.9421   -3.7633 H   0  0  0  0  0  0  0  0  0  0  0  0
    2.5122   -2.2057   -1.2857 C   0  0  0  0  0  0  0  0  0  0  0  0
    2.0957   -3.2334   -1.2225 H   0  0  0  0  0  0  0  0  0  0  0  0
    2.4302   -1.7348   -0.2891 H   0  0  0  0  0  0  0  0  0  0  0  0
    3.5919   -2.3091   -1.5046 H   0  0  0  0  0  0  0  0  0  0  0  0
   -1.2810    0.6719   -3.2289 C   0  0  0  0  0  0  0  0  0  0  0  0
   -1.4657    1.2601   -4.1465 H   0  0  0  0  0  0  0  0  0  0  0  0
   -1.2134    1.3797   -2.3820 H   0  0  0  0  0  0  0  0  0  0  0  0
   -2.1634    0.0160   -3.0720 H   0  0  0  0  0  0  0  0  0  0  0  0
   -0.5327    3.3625    1.0898 C   0  0  0  0  0  0  0  0  0  0  0  0
   -0.3032    2.9744    0.0809 H   0  0  0  0  0  0  0  0  0  0  0  0
   -0.0756    4.3678    1.1590 H   0  0  0  0  0  0  0  0  0  0  0  0
   -1.6318    3.5014    1.1703 H   0  0  0  0  0  0  0  0  0  0  0  0
    0.4241   -1.1726    3.3170 C   0  0  0  0  0  0  0  0  0  0  0  0
   -0.5885   -1.6278    3.3537 H   0  0  0  0  0  0  0  0  0  0  0  0
    0.9846   -1.5431    4.1949 H   0  0  0  0  0  0  0  0  0  0  0  0
    0.9405   -1.5352    2.4092 H   0  0  0  0  0  0  0  0  0  0  0  0
    1.3716    3.1357    5.7371 C   0  0  0  0  0  0  0  0  0  0  0  0
    1.2548    4.2329    5.6521 H   0  0  0  0  0  0  0  0  0  0  0  0
    2.4488    2.9210    5.8989 H   0  0  0  0  0  0  0  0  0  0  0  0
    0.8373    2.8022    6.6501 H   0  0  0  0  0  0  0  0  0  0  0  0
    2.5623   -0.8129   -6.1162 C   0  0  0  0  0  0  0  0  0  0  0  0
    3.4774   -1.4352   -6.1064 H   0  0  0  0  0  0  0  0  0  0  0  0
    2.8547    0.2159   -6.4140 H   0  0  0  0  0  0  0  0  0  0  0  0
    1.8922   -1.1989   -6.9116 H   0  0  0  0  0  0  0  0  0  0  0  0
   -3.0038    0.2976    0.8637 C   0  0  0  0  0  0  0  0  0  0  0  0
   -1.2902   -2.8301   -0.4509 C   0  0  0  0  0  0  0  0  0  0  0  0
   -4.2041   -0.6521    0.7062 C   0  0  0  0  0  0  0  0  0  0  0  0
   -4.2433   -1.4121    1.5119 H   0  0  0  0  0  0  0  0  0  0  0  0
   -4.2058   -1.1746   -0.2686 H   0  0  0  0  0  0  0  0  0  0  0  0
   -5.1389   -0.0588    0.7630 H   0  0  0  0  0  0  0  0  0  0  0  0
   -3.1466    0.9643    2.2480 C   0  0  0  0  0  0  0  0  0  0  0  0
   -3.0000    0.2277    3.0651 H   0  0  0  0  0  0  0  0  0  0  0  0
   -4.1678    1.3834    2.3521 H   0  0  0  0  0  0  0  0  0  0  0  0
   -2.4272    1.7846    2.4094 H   0  0  0  0  0  0  0  0  0  0  0  0
   -3.0853    1.3537   -0.2494 C   0  0  0  0  0  0  0  0  0  0  0  0
   -3.2716    0.8889   -1.2364 H   0  0  0  0  0  0  0  0  0  0  0  0
   -2.1617    1.9534   -0.3225 H   0  0  0  0  0  0  0  0  0  0  0  0
   -3.9279    2.0466   -0.0517 H   0  0  0  0  0  0  0  0  0  0  0  0
   -2.6637   -3.3942   -0.0477 C   0  0  0  0  0  0  0  0  0  0  0  0
   -2.6019   -4.5009   -0.0232 H   0  0  0  0  0  0  0  0  0  0  0  0
   -3.4559   -3.1217   -0.7732 H   0  0  0  0  0  0  0  0  0  0  0  0
   -2.9803   -3.0611    0.9584 H   0  0  0  0  0  0  0  0  0  0  0  0
   -0.9750   -3.3953   -1.8518 C   0  0  0  0  0  0  0  0  0  0  0  0
   -1.1097   -4.4959   -1.8446 H   0  0  0  0  0  0  0  0  0  0  0  0
    0.0559   -3.1837   -2.1820 H   0  0  0  0  0  0  0  0  0  0  0  0
   -1.6616   -2.9772   -2.6169 H   0  0  0  0  0  0  0  0  0  0  0  0
   -0.2552   -3.3251    0.5710 C   0  0  0  0  0  0  0  0  0  0  0  0
   -0.6064   -3.1734    1.6096 H   0  0  0  0  0  0  0  0  0  0  0  0
    0.7166   -2.8137    0.4603 H   0  0  0  0  0  0  0  0  0  0  0  0
   -0.0857   -4.4129    0.4403 H   0  0  0  0  0  0  0  0  0  0  0  0
  2  4  1  0  0  0  0
  2  1  1  0  0  0  0
  2  3  1  0  0  0  0
  4  6  1  0  0  0  0
  4  5  1  0  0  0  0
  6  1  1  0  0  0  0
  6  8  1  0  0  0  0
  7  6  1  0  0  0  0
  9  4  1  0  0  0  0
 10  2  1  0  0  0  0
  1 11  1  0  0  0  0
  1 12  1  0  0  0  0
 13 14  1  0  0  0  0
 13 17  1  0  0  0  0
 14 15  1  0  0  0  0
 15 18  1  0  0  0  0
 15 16  1  0  0  0  0
 16 19  1  0  0  0  0
 16 17  1  0  0  0  0
 20 23  2  0  0  0  0
 23 24  1  0  0  0  0
 21 24  2  0  0  0  0
 21 25  1  0  0  0  0
 22 25  2  0  0  0  0
 20 22  1  0  0  0  0
 24 26  1  0  0  0  0
 25 27  1  0  0  0  0
 17 20  1  0  0  0  0
 28 31  2  0  0  0  0
 31 32  1  0  0  0  0
 29 32  2  0  0  0  0
 29 33  1  0  0  0  0
 30 33  2  0  0  0  0
 28 30  1  0  0  0  0
 32 34  1  0  0  0  0
 33 35  1  0  0  0  0
 14 28  1  0  0  0  0
 36 37  1  0  0  0  0
 36 38  1  0  0  0  0
 36 39  1  0  0  0  0
 30 36  1  0  0  0  0
 40 41  1  0  0  0  0
 40 42  1  0  0  0  0
 40 43  1  0  0  0  0
 31 40  1  0  0  0  0
 44 45  1  0  0  0  0
 44 46  1  0  0  0  0
 44 47  1  0  0  0  0
 23 44  1  0  0  0  0
 48 49  1  0  0  0  0
 48 50  1  0  0  0  0
 48 51  1  0  0  0  0
 22 48  1  0  0  0  0
 52 53  1  0  0  0  0
 52 54  1  0  0  0  0
 52 55  1  0  0  0  0
 21 52  1  0  0  0  0
 56 57  1  0  0  0  0
 56 58  1  0  0  0  0
 56 59  1  0  0  0  0
 29 56  1  0  0  0  0
 16 60  1  0  0  0  0
 15 61  1  0  0  0  0
 62 63  1  0  0  0  0
 62 64  1  0  0  0  0
 62 65  1  0  0  0  0
 60 62  1  0  0  0  0
 66 67  1  0  0  0  0
 66 68  1  0  0  0  0
 66 69  1  0  0  0  0
 60 66  1  0  0  0  0
 70 71  1  0  0  0  0
 70 72  1  0  0  0  0
 70 73  1  0  0  0  0
 60 70  1  0  0  0  0
 74 75  1  0  0  0  0
 74 76  1  0  0  0  0
 74 77  1  0  0  0  0
 61 74  1  0  0  0  0
 78 79  1  0  0  0  0
 78 80  1  0  0  0  0
 78 81  1  0  0  0  0
 61 78  1  0  0  0  0
 82 83  1  0  0  0  0
 82 84  1  0  0  0  0
 82 85  1  0  0  0  0
 61 82  1  0  0  0  0
  1 13  1  0  0  0  0
M  END
>  <DFT-ENERGY>
-2370.99751784

$$$$
