
  CDK     08132416163D

 91 94  0  0  0  0  0  0  0  0999 V2000
   -0.4138   -4.2699   -2.1489 C   0  0  0  0  0  0  0  0  0  0  0  0
    0.6191   -4.2907   -2.5383 H   0  0  0  0  0  0  0  0  0  0  0  0
   -0.9341   -5.2131   -2.4309 H   0  0  0  0  0  0  0  0  0  0  0  0
   -0.9511   -3.4397   -2.6448 H   0  0  0  0  0  0  0  0  0  0  0  0
   -0.4418   -4.1400   -0.6443 C   0  0  0  0  0  0  0  0  0  0  0  0
   -1.4427   -4.1757   -0.1722 H   0  0  0  0  0  0  0  0  0  0  0  0
    0.6197   -4.6096    0.1761 C   0  0  0  0  0  0  0  0  0  0  0  0
    1.5658   -4.8358   -0.3474 H   0  0  0  0  0  0  0  0  0  0  0  0
    0.3453   -5.3360    1.4711 C   0  0  0  0  0  0  0  0  0  0  0  0
    1.2474   -5.4339    2.1040 H   0  0  0  0  0  0  0  0  0  0  0  0
   -0.0085   -6.3619    1.2296 H   0  0  0  0  0  0  0  0  0  0  0  0
   -0.4503   -4.8211    2.0447 H   0  0  0  0  0  0  0  0  0  0  0  0
    1.6052   -2.7872    1.2218 C   0  0  0  0  0  0  0  0  0  0  0  0
    1.3626   -2.9557    2.2919 H   0  0  0  0  0  0  0  0  0  0  0  0
    2.6527   -2.9603    0.8926 H   0  0  0  0  0  0  0  0  0  0  0  0
    0.3344   -2.2077    0.0286 Ru  0  0  0  0  0  0  0  0  0  0  0  0
   -1.2880   -2.3071    1.8143 Cl  0  0  0  0  0  0  0  0  0  0  0  0
    2.0011   -2.1673   -1.7061 Cl  0  0  0  0  0  0  0  0  0  0  0  0
    0.1746   -0.2100    0.0197 C   0  0  0  0  0  0  0  0  0  0  0  0
    0.7571    0.6844    0.8629 N   0  0  0  0  0  0  0  0  0  0  0  0
    0.3654    2.0981    0.5493 C   0  0  0  0  0  0  0  0  0  0  0  0
   -0.6234    1.9274   -0.6550 C   0  0  0  0  0  0  0  0  0  0  0  0
   -0.6162    0.4462   -0.8702 N   0  0  0  0  0  0  0  0  0  0  0  0
   -0.1910    2.5011    1.4212 H   0  0  0  0  0  0  0  0  0  0  0  0
   -0.1906    2.4109   -1.5560 H   0  0  0  0  0  0  0  0  0  0  0  0
   -1.0957   -0.2473   -2.0507 C   0  0  0  0  0  0  0  0  0  0  0  0
   -1.9863   -1.5747   -4.3991 C   0  0  0  0  0  0  0  0  0  0  0  0
   -0.3584   -0.1281   -3.2603 C   0  0  0  0  0  0  0  0  0  0  0  0
   -2.2731   -1.0408   -2.0058 C   0  0  0  0  0  0  0  0  0  0  0  0
   -2.6856   -1.6856   -3.1909 C   0  0  0  0  0  0  0  0  0  0  0  0
   -0.8216   -0.7890   -4.4064 C   0  0  0  0  0  0  0  0  0  0  0  0
   -3.5992   -2.2992   -3.1526 H   0  0  0  0  0  0  0  0  0  0  0  0
   -0.2351   -0.6982   -5.3337 H   0  0  0  0  0  0  0  0  0  0  0  0
    1.4156    0.2603    2.0795 C   0  0  0  0  0  0  0  0  0  0  0  0
    2.6526   -0.6377    4.4705 C   0  0  0  0  0  0  0  0  0  0  0  0
    2.7473   -0.2282    2.0403 C   0  0  0  0  0  0  0  0  0  0  0  0
    0.6988    0.2934    3.3022 C   0  0  0  0  0  0  0  0  0  0  0  0
    1.3371   -0.1467    4.4728 C   0  0  0  0  0  0  0  0  0  0  0  0
    3.3304   -0.6713    3.2443 C   0  0  0  0  0  0  0  0  0  0  0  0
    0.7683   -0.1254    5.4156 H   0  0  0  0  0  0  0  0  0  0  0  0
    4.3614   -1.0568    3.2097 H   0  0  0  0  0  0  0  0  0  0  0  0
    3.5926   -0.2616    0.7939 C   0  0  0  0  0  0  0  0  0  0  0  0
    4.4120   -0.9960    0.9122 H   0  0  0  0  0  0  0  0  0  0  0  0
    4.0697    0.7243    0.6144 H   0  0  0  0  0  0  0  0  0  0  0  0
    3.0244   -0.5460   -0.1116 H   0  0  0  0  0  0  0  0  0  0  0  0
   -0.7291    0.7559    3.3799 C   0  0  0  0  0  0  0  0  0  0  0  0
   -1.1754    0.4669    4.3493 H   0  0  0  0  0  0  0  0  0  0  0  0
   -1.3320    0.2897    2.5793 H   0  0  0  0  0  0  0  0  0  0  0  0
   -0.8137    1.8602    3.2930 H   0  0  0  0  0  0  0  0  0  0  0  0
   -3.1574   -1.1930   -0.7963 C   0  0  0  0  0  0  0  0  0  0  0  0
   -3.7084   -2.1512   -0.8529 H   0  0  0  0  0  0  0  0  0  0  0  0
   -3.9173   -0.3841   -0.7615 H   0  0  0  0  0  0  0  0  0  0  0  0
   -2.6026   -1.1949    0.1586 H   0  0  0  0  0  0  0  0  0  0  0  0
    0.9131    0.6670   -3.3410 C   0  0  0  0  0  0  0  0  0  0  0  0
    0.7194    1.7602   -3.3237 H   0  0  0  0  0  0  0  0  0  0  0  0
    1.4502    0.4400   -4.2801 H   0  0  0  0  0  0  0  0  0  0  0  0
    1.5831    0.4124   -2.4998 H   0  0  0  0  0  0  0  0  0  0  0  0
   -2.4338   -2.3090   -5.6364 C   0  0  0  0  0  0  0  0  0  0  0  0
   -3.4841   -2.6481   -5.5530 H   0  0  0  0  0  0  0  0  0  0  0  0
   -1.8046   -3.2084   -5.8080 H   0  0  0  0  0  0  0  0  0  0  0  0
   -2.3433   -1.6749   -6.5408 H   0  0  0  0  0  0  0  0  0  0  0  0
    3.2997   -1.1209    5.7436 C   0  0  0  0  0  0  0  0  0  0  0  0
    2.7189   -1.9499    6.1984 H   0  0  0  0  0  0  0  0  0  0  0  0
    3.3504   -0.3118    6.5015 H   0  0  0  0  0  0  0  0  0  0  0  0
    4.3296   -1.4844    5.5651 H   0  0  0  0  0  0  0  0  0  0  0  0
   -2.0673    2.5182   -0.4721 C   0  0  0  0  0  0  0  0  0  0  0  0
    1.5955    3.0490    0.3203 C   0  0  0  0  0  0  0  0  0  0  0  0
   -2.0215    4.0382   -0.2367 C   0  0  0  0  0  0  0  0  0  0  0  0
   -1.5679    4.5817   -1.0888 H   0  0  0  0  0  0  0  0  0  0  0  0
   -1.4733    4.3082    0.6850 H   0  0  0  0  0  0  0  0  0  0  0  0
   -3.0599    4.4096   -0.1214 H   0  0  0  0  0  0  0  0  0  0  0  0
   -2.8688    2.3083   -1.7743 C   0  0  0  0  0  0  0  0  0  0  0  0
   -2.3130    2.7023   -2.6505 H   0  0  0  0  0  0  0  0  0  0  0  0
   -3.8289    2.8592   -1.7107 H   0  0  0  0  0  0  0  0  0  0  0  0
   -3.1006    1.2505   -1.9794 H   0  0  0  0  0  0  0  0  0  0  0  0
   -2.7933    1.8844    0.7253 C   0  0  0  0  0  0  0  0  0  0  0  0
   -2.4099    2.2829    1.6842 H   0  0  0  0  0  0  0  0  0  0  0  0
   -2.6868    0.7868    0.7471 H   0  0  0  0  0  0  0  0  0  0  0  0
   -3.8750    2.1239    0.6828 H   0  0  0  0  0  0  0  0  0  0  0  0
    1.1313    4.4837    0.0119 C   0  0  0  0  0  0  0  0  0  0  0  0
    2.0265    5.1214   -0.1337 H   0  0  0  0  0  0  0  0  0  0  0  0
    0.5436    4.9218    0.8426 H   0  0  0  0  0  0  0  0  0  0  0  0
    0.5311    4.5460   -0.9148 H   0  0  0  0  0  0  0  0  0  0  0  0
    2.4288    3.1360    1.6166 C   0  0  0  0  0  0  0  0  0  0  0  0
    3.1825    3.9431    1.5159 H   0  0  0  0  0  0  0  0  0  0  0  0
    2.9644    2.2025    1.8545 H   0  0  0  0  0  0  0  0  0  0  0  0
    1.7874    3.3817    2.4883 H   0  0  0  0  0  0  0  0  0  0  0  0
    2.4698    2.5816   -0.8538 C   0  0  0  0  0  0  0  0  0  0  0  0
    1.9939    2.8087   -1.8269 H   0  0  0  0  0  0  0  0  0  0  0  0
    2.6715    1.4978   -0.8183 H   0  0  0  0  0  0  0  0  0  0  0  0
    3.4429    3.1128   -0.8359 H   0  0  0  0  0  0  0  0  0  0  0  0
  1  2  1  0  0  0  0
  1  5  1  0  0  0  0
  3  1  1  0  0  0  0
  4  1  1  0  0  0  0
  5  6  1  0  0  0  0
  5 16  1  0  0  0  0
  5  7  1  0  0  0  0
  7  9  1  0  0  0  0
  7  8  1  0  0  0  0
  9 10  1  0  0  0  0
 11  9  1  0  0  0  0
 12  9  1  0  0  0  0
 13 14  1  0  0  0  0
 13 15  1  0  0  0  0
 13  7  1  0  0  0  0
 16 13  1  0  0  0  0
 16 17  1  0  0  0  0
 16 18  1  0  0  0  0
 19 20  1  0  0  0  0
 19 23  1  0  0  0  0
 20 21  1  0  0  0  0
 21 24  1  0  0  0  0
 21 22  1  0  0  0  0
 22 25  1  0  0  0  0
 22 23  1  0  0  0  0
 26 29  2  0  0  0  0
 29 30  1  0  0  0  0
 27 30  2  0  0  0  0
 27 31  1  0  0  0  0
 28 31  2  0  0  0  0
 26 28  1  0  0  0  0
 30 32  1  0  0  0  0
 31 33  1  0  0  0  0
 23 26  1  0  0  0  0
 34 37  2  0  0  0  0
 37 38  1  0  0  0  0
 35 38  2  0  0  0  0
 35 39  1  0  0  0  0
 36 39  2  0  0  0  0
 34 36  1  0  0  0  0
 38 40  1  0  0  0  0
 39 41  1  0  0  0  0
 20 34  1  0  0  0  0
 42 43  1  0  0  0  0
 42 44  1  0  0  0  0
 42 45  1  0  0  0  0
 36 42  1  0  0  0  0
 46 47  1  0  0  0  0
 46 48  1  0  0  0  0
 46 49  1  0  0  0  0
 37 46  1  0  0  0  0
 50 51  1  0  0  0  0
 50 52  1  0  0  0  0
 50 53  1  0  0  0  0
 29 50  1  0  0  0  0
 54 55  1  0  0  0  0
 54 56  1  0  0  0  0
 54 57  1  0  0  0  0
 28 54  1  0  0  0  0
 58 59  1  0  0  0  0
 58 60  1  0  0  0  0
 58 61  1  0  0  0  0
 27 58  1  0  0  0  0
 62 63  1  0  0  0  0
 62 64  1  0  0  0  0
 62 65  1  0  0  0  0
 35 62  1  0  0  0  0
 22 66  1  0  0  0  0
 21 67  1  0  0  0  0
 68 69  1  0  0  0  0
 68 70  1  0  0  0  0
 68 71  1  0  0  0  0
 66 68  1  0  0  0  0
 72 73  1  0  0  0  0
 72 74  1  0  0  0  0
 72 75  1  0  0  0  0
 66 72  1  0  0  0  0
 76 77  1  0  0  0  0
 76 78  1  0  0  0  0
 76 79  1  0  0  0  0
 66 76  1  0  0  0  0
 80 81  1  0  0  0  0
 80 82  1  0  0  0  0
 80 83  1  0  0  0  0
 67 80  1  0  0  0  0
 84 85  1  0  0  0  0
 84 86  1  0  0  0  0
 84 87  1  0  0  0  0
 67 84  1  0  0  0  0
 88 89  1  0  0  0  0
 88 90  1  0  0  0  0
 88 91  1  0  0  0  0
 67 88  1  0  0  0  0
 16 19  1  0  0  0  0
M  END
>  <DFT-ENERGY>
-2449.50315422

$$$$
