
  CDK     08152405203D

 85 89  0  0  0  0  0  0  0  0999 V2000
    2.4535   -0.9922   -2.8254 H   0  0  0  0  0  0  0  0  0  0  0  0
    3.6718   -1.0932   -2.6846 C   0  0  0  0  0  0  0  0  0  0  0  0
    3.7672   -1.1754   -3.7892 H   0  0  0  0  0  0  0  0  0  0  0  0
    3.7462   -2.2690   -1.7660 C   0  0  0  0  0  0  0  0  0  0  0  0
    4.6106   -2.3297   -1.0847 H   0  0  0  0  0  0  0  0  0  0  0  0
    3.3898   -3.2311   -2.1721 H   0  0  0  0  0  0  0  0  0  0  0  0
    2.2860   -0.9883   -1.0596 Ru  0  0  0  0  0  0  0  0  0  0  0  0
    3.8632    0.1694   -1.9548 C   0  0  0  0  0  0  0  0  0  0  0  0
    4.7026    0.2626   -1.2550 H   0  0  0  0  0  0  0  0  0  0  0  0
    3.5440    1.0993   -2.4556 H   0  0  0  0  0  0  0  0  0  0  0  0
    3.7353   -0.5301    0.8576 Cl  0  0  0  0  0  0  0  0  0  0  0  0
    0.6072   -2.1785   -2.2928 Cl  0  0  0  0  0  0  0  0  0  0  0  0
    1.0374   -1.2951    0.5565 C   0  0  0  0  0  0  0  0  0  0  0  0
    0.5817   -2.4146    1.1625 N   0  0  0  0  0  0  0  0  0  0  0  0
   -0.2736   -2.0860    2.3543 C   0  0  0  0  0  0  0  0  0  0  0  0
   -0.4026   -0.5235    2.2822 C   0  0  0  0  0  0  0  0  0  0  0  0
    0.4878   -0.1983    1.1327 N   0  0  0  0  0  0  0  0  0  0  0  0
   -1.2692   -2.5537    2.2136 H   0  0  0  0  0  0  0  0  0  0  0  0
    0.0450   -0.0883    3.1984 H   0  0  0  0  0  0  0  0  0  0  0  0
    0.9355    1.0952    0.6712 C   0  0  0  0  0  0  0  0  0  0  0  0
    2.1026    3.4594   -0.3682 C   0  0  0  0  0  0  0  0  0  0  0  0
    1.7522    1.9032    1.5061 C   0  0  0  0  0  0  0  0  0  0  0  0
    0.6341    1.4997   -0.6581 C   0  0  0  0  0  0  0  0  0  0  0  0
    1.2566    2.6683   -1.1514 C   0  0  0  0  0  0  0  0  0  0  0  0
    2.3065    3.0717    0.9693 C   0  0  0  0  0  0  0  0  0  0  0  0
    1.0369    2.9729   -2.1867 H   0  0  0  0  0  0  0  0  0  0  0  0
    2.9579    3.6820    1.6142 H   0  0  0  0  0  0  0  0  0  0  0  0
    0.7279   -3.7431    0.5979 C   0  0  0  0  0  0  0  0  0  0  0  0
    0.9460   -6.3303   -0.5551 C   0  0  0  0  0  0  0  0  0  0  0  0
    1.9732   -4.4180    0.6191 C   0  0  0  0  0  0  0  0  0  0  0  0
   -0.4024   -4.3519   -0.0058 C   0  0  0  0  0  0  0  0  0  0  0  0
   -0.2744   -5.6378   -0.5515 C   0  0  0  0  0  0  0  0  0  0  0  0
    2.0492   -5.6945    0.0278 C   0  0  0  0  0  0  0  0  0  0  0  0
   -1.1586   -6.0943   -1.0235 H   0  0  0  0  0  0  0  0  0  0  0  0
    3.0218   -6.2112    0.0417 H   0  0  0  0  0  0  0  0  0  0  0  0
    3.2094   -3.8879    1.2913 C   0  0  0  0  0  0  0  0  0  0  0  0
    3.3187   -2.7924    1.2075 H   0  0  0  0  0  0  0  0  0  0  0  0
    4.1105   -4.3542    0.8487 H   0  0  0  0  0  0  0  0  0  0  0  0
    3.2111   -4.1485    2.3718 H   0  0  0  0  0  0  0  0  0  0  0  0
   -1.7247   -3.6480   -0.1320 C   0  0  0  0  0  0  0  0  0  0  0  0
   -2.3546   -4.1469   -0.8917 H   0  0  0  0  0  0  0  0  0  0  0  0
   -1.5804   -2.5989   -0.4467 H   0  0  0  0  0  0  0  0  0  0  0  0
   -2.2984   -3.6488    0.8198 H   0  0  0  0  0  0  0  0  0  0  0  0
   -0.4521    0.8880   -1.5112 C   0  0  0  0  0  0  0  0  0  0  0  0
   -0.2198    1.0196   -2.5843 H   0  0  0  0  0  0  0  0  0  0  0  0
   -1.4120    1.4133   -1.3115 H   0  0  0  0  0  0  0  0  0  0  0  0
   -0.6011   -0.1916   -1.3538 H   0  0  0  0  0  0  0  0  0  0  0  0
    2.0665    1.5279    2.9285 C   0  0  0  0  0  0  0  0  0  0  0  0
    1.1925    1.6736    3.5993 H   0  0  0  0  0  0  0  0  0  0  0  0
    2.8909    2.1527    3.3190 H   0  0  0  0  0  0  0  0  0  0  0  0
    2.3838    0.4711    2.9864 H   0  0  0  0  0  0  0  0  0  0  0  0
    2.7811    4.6838   -0.9266 C   0  0  0  0  0  0  0  0  0  0  0  0
    3.8753    4.5198   -1.0227 H   0  0  0  0  0  0  0  0  0  0  0  0
    2.6453    5.5618   -0.2628 H   0  0  0  0  0  0  0  0  0  0  0  0
    2.3910    4.9459   -1.9287 H   0  0  0  0  0  0  0  0  0  0  0  0
    1.0642   -7.6912   -1.1926 C   0  0  0  0  0  0  0  0  0  0  0  0
    0.9799   -7.6209   -2.2978 H   0  0  0  0  0  0  0  0  0  0  0  0
    0.2574   -8.3713   -0.8511 H   0  0  0  0  0  0  0  0  0  0  0  0
    2.0363   -8.1670   -0.9607 H   0  0  0  0  0  0  0  0  0  0  0  0
   -1.8447    0.0867    2.1673 C   0  0  0  0  0  0  0  0  0  0  0  0
    0.3221   -2.6508    3.6917 C   0  0  0  0  0  0  0  0  0  0  0  0
   -2.6496   -0.2231    3.4417 C   0  0  0  0  0  0  0  0  0  0  0  0
   -2.1740    0.2015    4.3482 H   0  0  0  0  0  0  0  0  0  0  0  0
   -2.7889   -1.3095    3.5977 H   0  0  0  0  0  0  0  0  0  0  0  0
   -3.6575    0.2297    3.3505 H   0  0  0  0  0  0  0  0  0  0  0  0
   -1.7455    1.6226    2.0593 C   0  0  0  0  0  0  0  0  0  0  0  0
   -1.1138    2.0478    2.8661 H   0  0  0  0  0  0  0  0  0  0  0  0
   -2.7577    2.0641    2.1594 H   0  0  0  0  0  0  0  0  0  0  0  0
   -1.3273    1.9577    1.0936 H   0  0  0  0  0  0  0  0  0  0  0  0
   -2.6294   -0.4611    0.9674 C   0  0  0  0  0  0  0  0  0  0  0  0
   -2.9327   -1.5131    1.1234 H   0  0  0  0  0  0  0  0  0  0  0  0
   -2.0481   -0.4031    0.0314 H   0  0  0  0  0  0  0  0  0  0  0  0
   -3.5574    0.1293    0.8268 H   0  0  0  0  0  0  0  0  0  0  0  0
   -0.5846   -2.2828    4.8797 C   0  0  0  0  0  0  0  0  0  0  0  0
   -0.1475   -2.7057    5.8066 H   0  0  0  0  0  0  0  0  0  0  0  0
   -1.6045   -2.7034    4.7710 H   0  0  0  0  0  0  0  0  0  0  0  0
   -0.6699   -1.1900    5.0276 H   0  0  0  0  0  0  0  0  0  0  0  0
    0.3614   -4.1920    3.6337 C   0  0  0  0  0  0  0  0  0  0  0  0
    0.6109   -4.5913    4.6378 H   0  0  0  0  0  0  0  0  0  0  0  0
    1.1069   -4.5802    2.9207 H   0  0  0  0  0  0  0  0  0  0  0  0
   -0.6253   -4.6073    3.3415 H   0  0  0  0  0  0  0  0  0  0  0  0
    1.7262   -2.0843    3.9640 C   0  0  0  0  0  0  0  0  0  0  0  0
    1.6751   -1.0351    4.3164 H   0  0  0  0  0  0  0  0  0  0  0  0
    2.3740   -2.1085    3.0695 H   0  0  0  0  0  0  0  0  0  0  0  0
    2.2210   -2.6686    4.7657 H   0  0  0  0  0  0  0  0  0  0  0  0
  1  2  1  0  0  0  0
  1  7  1  0  0  0  0
  2  3  1  0  0  0  0
  2  4  1  0  0  0  0
  4  5  1  0  0  0  0
  4  6  1  0  0  0  0
  7  8  1  0  0  0  0
  4  7  1  0  0  0  0
  2  8  1  0  0  0  0
  8  9  1  0  0  0  0
  8 10  1  0  0  0  0
  7 11  1  0  0  0  0
  7 12  1  0  0  0  0
 13 14  1  0  0  0  0
 13 17  1  0  0  0  0
 14 15  1  0  0  0  0
 15 18  1  0  0  0  0
 15 16  1  0  0  0  0
 16 19  1  0  0  0  0
 16 17  1  0  0  0  0
 20 23  2  0  0  0  0
 23 24  1  0  0  0  0
 21 24  2  0  0  0  0
 21 25  1  0  0  0  0
 22 25  2  0  0  0  0
 20 22  1  0  0  0  0
 24 26  1  0  0  0  0
 25 27  1  0  0  0  0
 17 20  1  0  0  0  0
 28 31  2  0  0  0  0
 31 32  1  0  0  0  0
 29 32  2  0  0  0  0
 29 33  1  0  0  0  0
 30 33  2  0  0  0  0
 28 30  1  0  0  0  0
 32 34  1  0  0  0  0
 33 35  1  0  0  0  0
 14 28  1  0  0  0  0
 36 37  1  0  0  0  0
 36 38  1  0  0  0  0
 36 39  1  0  0  0  0
 30 36  1  0  0  0  0
 40 41  1  0  0  0  0
 40 42  1  0  0  0  0
 40 43  1  0  0  0  0
 31 40  1  0  0  0  0
 44 45  1  0  0  0  0
 44 46  1  0  0  0  0
 44 47  1  0  0  0  0
 23 44  1  0  0  0  0
 48 49  1  0  0  0  0
 48 50  1  0  0  0  0
 48 51  1  0  0  0  0
 22 48  1  0  0  0  0
 52 53  1  0  0  0  0
 52 54  1  0  0  0  0
 52 55  1  0  0  0  0
 21 52  1  0  0  0  0
 56 57  1  0  0  0  0
 56 58  1  0  0  0  0
 56 59  1  0  0  0  0
 29 56  1  0  0  0  0
 16 60  1  0  0  0  0
 15 61  1  0  0  0  0
 62 63  1  0  0  0  0
 62 64  1  0  0  0  0
 62 65  1  0  0  0  0
 60 62  1  0  0  0  0
 66 67  1  0  0  0  0
 66 68  1  0  0  0  0
 66 69  1  0  0  0  0
 60 66  1  0  0  0  0
 70 71  1  0  0  0  0
 70 72  1  0  0  0  0
 70 73  1  0  0  0  0
 60 70  1  0  0  0  0
 74 75  1  0  0  0  0
 74 76  1  0  0  0  0
 74 77  1  0  0  0  0
 61 74  1  0  0  0  0
 78 79  1  0  0  0  0
 78 80  1  0  0  0  0
 78 81  1  0  0  0  0
 61 78  1  0  0  0  0
 82 83  1  0  0  0  0
 82 84  1  0  0  0  0
 82 85  1  0  0  0  0
 61 82  1  0  0  0  0
  7 13  1  0  0  0  0
M  END
>  <DFT-ENERGY>
-2370.95322243

$$$$
