 
  -MOLDEN-
Molden generated mol file
 52 55  0  0  0  0  0  0  0  0999 V2000
    1.1790    2.2896   -2.9791 C   0  0  0  0  0  0  0  0  0  0  0  0
    0.2423    2.8727   -2.9306 H   0  0  0  0  0  0  0  0  0  0  0  0
    1.8470    2.7201   -3.7586 H   0  0  0  0  0  0  0  0  0  0  0  0
    1.7108    2.4002   -2.0121 H   0  0  0  0  0  0  0  0  0  0  0  0
    0.9287    0.8367   -3.3144 C   0  0  0  0  0  0  0  0  0  0  0  0
    1.8297    0.2022   -3.4091 H   0  0  0  0  0  0  0  0  0  0  0  0
   -0.2111    0.3807   -4.0327 C   0  0  0  0  0  0  0  0  0  0  0  0
   -1.0337    1.1034   -4.1742 H   0  0  0  0  0  0  0  0  0  0  0  0
   -0.0638   -0.7356   -5.0416 C   0  0  0  0  0  0  0  0  0  0  0  0
   -1.0315   -1.1840   -5.3356 H   0  0  0  0  0  0  0  0  0  0  0  0
    0.4002   -0.3124   -5.9588 H   0  0  0  0  0  0  0  0  0  0  0  0
    0.6060   -1.5275   -4.6530 H   0  0  0  0  0  0  0  0  0  0  0  0
   -1.4613   -0.9825   -2.6310 C   0  0  0  0  0  0  0  0  0  0  0  0
   -1.2294   -2.0053   -3.0001 H   0  0  0  0  0  0  0  0  0  0  0  0
   -2.4793   -0.5787   -2.8323 H   0  0  0  0  0  0  0  0  0  0  0  0
   -0.2328    0.0017   -1.6980 RU  0  0  0  0  0  0  0  0  0  0  0  0
    1.3307   -1.8269   -1.8363 CL  0  0  0  0  0  0  0  0  0  0  0  0
   -1.7906    1.8316   -1.5744 CL  0  0  0  0  0  0  0  0  0  0  0  0
   -0.2130   -0.1918    0.6110 P   0  0  0  0  0  0  0  0  0  0  0  0
   -2.4910    1.0134    3.8340 C   0  0  0  0  0  0  0  0  0  0  0  0
    1.0883    1.0961    0.7241 C   0  0  0  0  0  0  0  0  0  0  0  0
   -2.9216    0.3278    1.1401 C   0  0  0  0  0  0  0  0  0  0  0  0
   -1.4034    0.6740    3.0187 C   0  0  0  0  0  0  0  0  0  0  0  0
    0.4323   -1.6874    1.4554 C   0  0  0  0  0  0  0  0  0  0  0  0
   -1.6182    0.3342    1.6680 C   0  0  0  0  0  0  0  0  0  0  0  0
    0.7407    2.4441    0.9523 C   0  0  0  0  0  0  0  0  0  0  0  0
   -4.0067    0.6573    1.9660 C   0  0  0  0  0  0  0  0  0  0  0  0
   -0.0175   -2.9454    1.0141 C   0  0  0  0  0  0  0  0  0  0  0  0
    2.4150    0.7489    0.3833 C   0  0  0  0  0  0  0  0  0  0  0  0
    1.7105   -2.7615    3.2227 C   0  0  0  0  0  0  0  0  0  0  0  0
    0.3865   -4.1050    1.6884 C   0  0  0  0  0  0  0  0  0  0  0  0
    1.7269    3.4349    0.8713 C   0  0  0  0  0  0  0  0  0  0  0  0
    3.0515    3.0908    0.5513 C   0  0  0  0  0  0  0  0  0  0  0  0
    3.3929    1.7509    0.3066 C   0  0  0  0  0  0  0  0  0  0  0  0
    1.3021   -1.5958    2.5580 C   0  0  0  0  0  0  0  0  0  0  0  0
    1.2494   -4.0149    2.7921 C   0  0  0  0  0  0  0  0  0  0  0  0
   -3.7937    1.0016    3.3088 C   0  0  0  0  0  0  0  0  0  0  0  0
   -2.3207    1.2846    4.8860 H   0  0  0  0  0  0  0  0  0  0  0  0
   -3.0732    0.0958    0.0777 H   0  0  0  0  0  0  0  0  0  0  0  0
   -0.3855    0.6751    3.4342 H   0  0  0  0  0  0  0  0  0  0  0  0
   -0.3033    2.7095    1.1670 H   0  0  0  0  0  0  0  0  0  0  0  0
   -5.0247    0.6548    1.5508 H   0  0  0  0  0  0  0  0  0  0  0  0
   -0.6638   -3.0088    0.1278 H   0  0  0  0  0  0  0  0  0  0  0  0
    2.6614   -0.2977    0.1521 H   0  0  0  0  0  0  0  0  0  0  0  0
    2.3951   -2.6887    4.0802 H   0  0  0  0  0  0  0  0  0  0  0  0
    0.0378   -5.0874    1.3389 H   0  0  0  0  0  0  0  0  0  0  0  0
    1.4569    4.4860    1.0477 H   0  0  0  0  0  0  0  0  0  0  0  0
    3.8202    3.8744    0.4835 H   0  0  0  0  0  0  0  0  0  0  0  0
    4.4255    1.4820    0.0415 H   0  0  0  0  0  0  0  0  0  0  0  0
    1.6757   -0.6154    2.8875 H   0  0  0  0  0  0  0  0  0  0  0  0
    1.5721   -4.9276    3.3138 H   0  0  0  0  0  0  0  0  0  0  0  0
   -4.6464    1.2650    3.9515 H   0  0  0  0  0  0  0  0  0  0  0  0
  1  2  1  0  0  0  0
  1  3  1  0  0  0  0
  1  4  1  0  0  0  0
  1  5  1  0  0  0  0
  5  6  1  0  0  0  0
  5  7  1  0  0  0  0
  5 16  1  0  0  0  0
  7  8  1  0  0  0  0
  7  9  1  0  0  0  0
  7 16  1  0  0  0  0
  9 10  1  0  0  0  0
  9 11  1  0  0  0  0
  9 12  1  0  0  0  0
 13 14  1  0  0  0  0
 13 15  1  0  0  0  0
 13 16  1  0  0  0  0
 16 17  1  0  0  0  0
 16 18  1  0  0  0  0
 16 19  1  0  0  0  0
 19 21  1  0  0  0  0
 19 24  1  0  0  0  0
 19 25  1  0  0  0  0
 20 23  2  0  0  0  0
 20 37  2  0  0  0  0
 20 38  1  0  0  0  0
 21 26  1  0  0  0  0
 21 29  1  0  0  0  0
 22 25  2  0  0  0  0
 22 27  2  0  0  0  0
 22 39  1  0  0  0  0
 23 25  2  0  0  0  0
 23 40  1  0  0  0  0
 24 28  2  0  0  0  0
 24 35  2  0  0  0  0
 26 32  2  0  0  0  0
 26 41  1  0  0  0  0
 27 37  2  0  0  0  0
 27 42  1  0  0  0  0
 28 31  2  0  0  0  0
 28 43  1  0  0  0  0
 29 34  2  0  0  0  0
 29 44  1  0  0  0  0
 30 35  2  0  0  0  0
 30 36  2  0  0  0  0
 30 45  1  0  0  0  0
 31 36  2  0  0  0  0
 31 46  1  0  0  0  0
 32 33  2  0  0  0  0
 32 47  1  0  0  0  0
 33 34  2  0  0  0  0
 33 48  1  0  0  0  0
 34 49  1  0  0  0  0
 35 50  1  0  0  0  0
 36 51  1  0  0  0  0
 37 52  1  0  0  0  0
M  END
>  <DFT-ENERGY>
-2246.43500653

$$$$
