CEBHEWMODN2_A1
  CDK     02152411113D

 60 64  0  0  0  0  0  0  0  0999 V2000
   -0.9530    0.4566    0.1139 Ru  0  0  0  0  0  0  0  0  0  0  0  0
   -2.7274    0.5661   -1.2753 O   0  0  0  0  0  0  0  0  0  0  0  0
   -2.1034    1.4627    1.1180 C   0  0  0  0  0  0  0  0  0  0  0  0
   -1.8529    1.7407    2.1407 H   0  0  0  0  0  0  0  0  0  0  0  0
   -3.0101   -0.1931   -2.5011 C   0  0  0  0  0  0  0  0  0  0  0  0
   -3.3755    0.5268   -3.2637 H   0  0  0  0  0  0  0  0  0  0  0  0
   -1.6161   -0.7199   -2.8189 C   0  0  0  0  0  0  0  0  0  0  0  0
   -1.5828   -1.2244   -3.7886 H   0  0  0  0  0  0  0  0  0  0  0  0
   -1.2770   -1.4411   -2.0497 H   0  0  0  0  0  0  0  0  0  0  0  0
   -0.8828    0.1108   -2.8368 H   0  0  0  0  0  0  0  0  0  0  0  0
   -4.0155   -1.2821   -2.1722 C   0  0  0  0  0  0  0  0  0  0  0  0
   -3.7247   -1.7943   -1.2341 H   0  0  0  0  0  0  0  0  0  0  0  0
   -4.0627   -2.0449   -2.9559 H   0  0  0  0  0  0  0  0  0  0  0  0
   -5.0260   -0.8905   -2.0148 H   0  0  0  0  0  0  0  0  0  0  0  0
   -3.6686    1.4241   -0.7703 C   0  0  0  0  0  0  0  0  0  0  0  0
   -4.8140    1.8442   -1.4233 C   0  0  0  0  0  0  0  0  0  0  0  0
   -5.0538    1.5079   -2.4294 H   0  0  0  0  0  0  0  0  0  0  0  0
   -5.6623    2.7292   -0.7658 C   0  0  0  0  0  0  0  0  0  0  0  0
   -6.5657    3.0732   -1.2745 H   0  0  0  0  0  0  0  0  0  0  0  0
   -5.3836    3.1846    0.5195 C   0  0  0  0  0  0  0  0  0  0  0  0
   -6.0673    3.8728    1.0139 H   0  0  0  0  0  0  0  0  0  0  0  0
   -4.2383    2.7529    1.1611 C   0  0  0  0  0  0  0  0  0  0  0  0
   -4.0236    3.0949    2.1724 H   0  0  0  0  0  0  0  0  0  0  0  0
   -3.3549    1.8813    0.5217 C   0  0  0  0  0  0  0  0  0  0  0  0
   -1.6745   -1.6589    0.6650 Cl  0  0  0  0  0  0  0  0  0  0  0  0
   -0.0317    2.0989   -1.2374 Cl  0  0  0  0  0  0  0  0  0  0  0  0
    0.7193    0.4813    1.5579 P   0  0  0  0  0  0  0  0  0  0  0  0
    1.8958   -2.6150    4.0886 C   0  0  0  0  0  0  0  0  0  0  0  0
    0.9187    2.0063    2.6356 C   0  0  0  0  0  0  0  0  0  0  0  0
   -0.4551   -1.2417    3.4341 C   0  0  0  0  0  0  0  0  0  0  0  0
    1.9282   -1.5926    3.1325 C   0  0  0  0  0  0  0  0  0  0  0  0
    2.3860    0.3703    0.7020 C   0  0  0  0  0  0  0  0  0  0  0  0
    0.7542   -0.9070    2.8193 C   0  0  0  0  0  0  0  0  0  0  0  0
    1.3484    1.9033    3.9596 C   0  0  0  0  0  0  0  0  0  0  0  0
   -0.4816   -2.2645    4.3910 C   0  0  0  0  0  0  0  0  0  0  0  0
    2.4078   -0.1004   -0.6120 C   0  0  0  0  0  0  0  0  0  0  0  0
    0.6589    3.2521    2.0622 C   0  0  0  0  0  0  0  0  0  0  0  0
    4.7794    0.6804    0.6587 C   0  0  0  0  0  0  0  0  0  0  0  0
    3.6316   -0.1949   -1.2883 C   0  0  0  0  0  0  0  0  0  0  0  0
    1.5220    3.0661    4.7196 C   0  0  0  0  0  0  0  0  0  0  0  0
    1.2712    4.3197    4.1516 C   0  0  0  0  0  0  0  0  0  0  0  0
    0.8397    4.4127    2.8251 C   0  0  0  0  0  0  0  0  0  0  0  0
    3.5601    0.7743    1.3396 C   0  0  0  0  0  0  0  0  0  0  0  0
    4.8145    0.1926   -0.6522 C   0  0  0  0  0  0  0  0  0  0  0  0
    0.6925   -2.9488    4.7184 C   0  0  0  0  0  0  0  0  0  0  0  0
    2.8074   -3.1557    4.3352 H   0  0  0  0  0  0  0  0  0  0  0  0
   -1.3942   -0.7359    3.1790 H   0  0  0  0  0  0  0  0  0  0  0  0
    2.8790   -1.3659    2.6458 H   0  0  0  0  0  0  0  0  0  0  0  0
    1.5492    0.9366    4.4287 H   0  0  0  0  0  0  0  0  0  0  0  0
   -1.4230   -2.5350    4.8669 H   0  0  0  0  0  0  0  0  0  0  0  0
    1.4894   -0.3845   -1.1452 H   0  0  0  0  0  0  0  0  0  0  0  0
    0.3129    3.3512    1.0225 H   0  0  0  0  0  0  0  0  0  0  0  0
    5.7001    0.9948    1.1468 H   0  0  0  0  0  0  0  0  0  0  0  0
    3.6573   -0.5595   -2.3141 H   0  0  0  0  0  0  0  0  0  0  0  0
    1.8531    2.9940    5.7540 H   0  0  0  0  0  0  0  0  0  0  0  0
    1.4112    5.2236    4.7436 H   0  0  0  0  0  0  0  0  0  0  0  0
    0.6436    5.3876    2.3802 H   0  0  0  0  0  0  0  0  0  0  0  0
    3.5537    1.1745    2.3561 H   0  0  0  0  0  0  0  0  0  0  0  0
    5.7647    0.1222   -1.1811 H   0  0  0  0  0  0  0  0  0  0  0  0
    0.6688   -3.7478    5.4586 H   0  0  0  0  0  0  0  0  0  0  0  0
  1  2  1  0  0  0  0
  1  3  2  0  0  0  0
  3  4  1  0  0  0  0
  2  5  1  0  0  0  0
  5  6  1  0  0  0  0
  5  7  1  0  0  0  0
  7  8  1  0  0  0  0
  7  9  1  0  0  0  0
  7 10  1  0  0  0  0
  5 11  1  0  0  0  0
 11 12  1  0  0  0  0
 11 13  1  0  0  0  0
 11 14  1  0  0  0  0
  2 15  1  0  0  0  0
 15 24  1  0  0  0  0
 15 16  2  0  0  0  0
 16 17  1  0  0  0  0
 16 18  1  0  0  0  0
 18 19  1  0  0  0  0
 18 20  2  0  0  0  0
 20 21  1  0  0  0  0
 20 22  1  0  0  0  0
 22 24  2  0  0  0  0
 22 23  1  0  0  0  0
  3 24  1  0  0  0  0
  1 25  1  0  0  0  0
  1 26  1  0  0  0  0
 28 31  1  0  0  0  0
 27 29  1  0  0  0  0
 30 33  1  0  0  0  0
 31 33  2  0  0  0  0
 27 32  1  0  0  0  0
 27 33  1  0  0  0  0
 29 34  1  0  0  0  0
 30 35  2  0  0  0  0
 32 36  2  0  0  0  0
 29 37  2  0  0  0  0
 38 43  2  0  0  0  0
 36 39  1  0  0  0  0
 34 40  2  0  0  0  0
 40 41  1  0  0  0  0
 37 42  1  0  0  0  0
 32 43  1  0  0  0  0
 38 44  1  0  0  0  0
 28 45  2  0  0  0  0
 28 46  1  0  0  0  0
 30 47  1  0  0  0  0
 31 48  1  0  0  0  0
 34 49  1  0  0  0  0
 35 50  1  0  0  0  0
 36 51  1  0  0  0  0
 37 52  1  0  0  0  0
 38 53  1  0  0  0  0
 39 54  1  0  0  0  0
 40 55  1  0  0  0  0
 41 56  1  0  0  0  0
 42 57  1  0  0  0  0
 43 58  1  0  0  0  0
 44 59  1  0  0  0  0
 45 60  1  0  0  0  0
 35 45  1  0  0  0  0
 39 44  2  0  0  0  0
 41 42  2  0  0  0  0
  1 27  1  0  0  0  0
M  END
> <FrozenCore-PM6_ENERGY>
742.576

> <RMSD_CONF_CG-CS>
0.453686

> <RMSD_CONF_GO-CS>
0.000000

> <UID>


> <freeEnergyA>
-2513.17703827

> <freeEnergyF>
-2513.15937222

> <freeEnergyE>
-2513.17703827

> <freeEnergyC>
-2167.88650641

> <freeEnergyL>
-1035.34015868

> <freeEnergyX>
-2246.4350065

> <freeEnergyZ>
-2167.89988612

> <freeEnergyD>
-2167.92026182

> <G_Propene>
-117.738020895

> <G_Ethene>
-78.4716324751

> <G_HoveydaProd>
-502.204109499

> <G_SIMes>
-924.27249048

> <G_HG_RuCl2_SIMes>
-2402.13728523

> <DG_referenceProductionBarrier>
0.01468968

> <hartree_to_kcalmol>
627.49467516

> <DFT_IDENTIFIER>
1708003680853

> <DFT_MACHINE>
158.36.42.38

> <XTB_IDENTIFIER>
NREC

> <XTB_MACHINE>
NREC

> <DE_Synth>
17.5166142562394256

> <DESCRIPTOR_DEFINITION_1>
desc1=( echo "1 * ( e( $hartree_to_kcalmol * ( ( $freeEnergyZ - $freeEnergyD ) - ( $freeEnergyX + 2*$G_Ethene - $freeEnergyD - 2*$G_Propene ) - $DDG_reference_HGII ) / $kT ) ) " | bc -l )

> <DESCRIPTOR_DEFINITION_2>
desc2=$( echo "1 * ( $hartree_to_kcalmol * ( ( $freeEnergyZ - $freeEnergyD ) - ( $freeEnergyX + 2*$G_Ethene - $freeEnergyD - 2*$G_Propene ) ) )" | bc -l )

> <DESCRIPTOR_DEFINITION_3>
desc3=$( echo "1 * $hartree_to_kcalmol * ( $DG_referenceProductionBarrier - ( $freeEnergyX + 2*$G_Ethene - $freeEnergyD - 2*$G_Propene ) )" | bc -l )

> <WEIGHT_DEFINITION_1>
w1=$( echo "1 / ( 1 + e( $hartree_to_kcalmol * ( ( ( $freeEnergyX + 2*$G_Ethene - $freeEnergyD - 2*$G_Propene ) ) - ( $DG_referenceProductionBarrier + $magnitude4 ) ) / $kT ) )" | bc -l )

> <WEIGHT_DEFINITION_2>
w2=$( echo "1 / ( 1 + e( $hartree_to_kcalmol * ( ABS( $freeEnergyC + $G_HoveydaProd - $freeEnergyA - 2*${G_Ethene} - $DG_referencePrecursorStabilityHII ) - ( $DDG_referencePrecursorStability + $magnitude1 ) ) / $kT ) )" | bc -l )

> <WEIGHT_DEFINITION_3>
w3=$( echo "1 / ( 1 + e( $hartree_to_kcalmol * ( ( $freeEnergyE + $G_PCy3 - $G_HI_precursor - $freeEnergyL ) - $magnitude1 ) / $kT ) )" | bc -l )

> <WEIGHT_DEFINITION_4>
w4=$( echo "1 / ( 1 + e( $hartree_to_kcalmol * ( - ( $freeEnergyF - $freeEnergyA ) + $magnitude2 ) / $kT ) )" | bc -l )

> <FITNESS_DEFINITION>
fitness=$( echo "( $desc1 + $desc2 + $desc3 ) * $w1 * $w2 * $w3 * $w4" | bc -l )

> <DESCRIPTOR_1>
.00000000195382669131

> <DESCRIPTOR_2>
1.470558996523401432

> <DESCRIPTOR_3>
2.660116214092157400

> <WEIGHT_1>
.99999860812615343873

> <WEIGHT_2>
.00000014356831466903

> <WEIGHT_3>
.04523457327597861400

> <WEIGHT_4>
.99999816438073181385

> <FITNESS>
.00000002682555690921

$$$$
