 
  -MOLDEN-
Molden generated mol file
 46 51  0  0  0  0  0  0  0  0999 V2000
    2.0242    0.8812   -3.6534 H   0  0  0  0  0  0  0  0  0  0  0  0
    2.5367   -0.2085   -3.4007 C   0  0  0  0  0  0  0  0  0  0  0  0
    3.3035   -0.2057   -4.2083 H   0  0  0  0  0  0  0  0  0  0  0  0
    1.3550   -1.0938   -3.3794 C   0  0  0  0  0  0  0  0  0  0  0  0
    1.4357   -1.9998   -2.7570 H   0  0  0  0  0  0  0  0  0  0  0  0
    0.7434   -1.2034   -4.2878 H   0  0  0  0  0  0  0  0  0  0  0  0
    0.8824    0.7344   -2.3039 RU  0  0  0  0  0  0  0  0  0  0  0  0
    2.8291   -0.1212   -1.9490 C   0  0  0  0  0  0  0  0  0  0  0  0
    2.8140   -1.0680   -1.3854 H   0  0  0  0  0  0  0  0  0  0  0  0
    3.5579    0.6166   -1.5821 H   0  0  0  0  0  0  0  0  0  0  0  0
    1.8584    2.6494   -1.4321 CL  0  0  0  0  0  0  0  0  0  0  0  0
   -1.1297    0.4690   -3.4160 CL  0  0  0  0  0  0  0  0  0  0  0  0
   -0.1606    0.3471   -0.3181 P   0  0  0  0  0  0  0  0  0  0  0  0
   -2.2451    3.8376    0.2483 C   0  0  0  0  0  0  0  0  0  0  0  0
    1.0036   -0.3348    0.9459 C   0  0  0  0  0  0  0  0  0  0  0  0
   -0.7653    2.0864    1.8724 C   0  0  0  0  0  0  0  0  0  0  0  0
   -1.6322    2.7128   -0.3184 C   0  0  0  0  0  0  0  0  0  0  0  0
   -1.5546   -0.8659   -0.2913 C   0  0  0  0  0  0  0  0  0  0  0  0
   -0.8923    1.8315    0.4949 C   0  0  0  0  0  0  0  0  0  0  0  0
    0.7915   -1.5884    1.5493 C   0  0  0  0  0  0  0  0  0  0  0  0
   -1.3765    3.2192    2.4326 C   0  0  0  0  0  0  0  0  0  0  0  0
   -2.6400   -0.7158    0.5918 C   0  0  0  0  0  0  0  0  0  0  0  0
    2.1478    0.4183    1.2846 C   0  0  0  0  0  0  0  0  0  0  0  0
   -2.5020   -2.9642   -1.0847 C   0  0  0  0  0  0  0  0  0  0  0  0
   -3.6512   -1.6878    0.6326 C   0  0  0  0  0  0  0  0  0  0  0  0
    1.7160   -2.0834    2.4836 C   0  0  0  0  0  0  0  0  0  0  0  0
    2.8473   -1.3297    2.8262 C   0  0  0  0  0  0  0  0  0  0  0  0
    3.0584   -0.0764    2.2266 C   0  0  0  0  0  0  0  0  0  0  0  0
   -1.4942   -1.9920   -1.1347 C   0  0  0  0  0  0  0  0  0  0  0  0
   -3.5832   -2.8134   -0.2018 C   0  0  0  0  0  0  0  0  0  0  0  0
   -2.1166    4.0939    1.6233 C   0  0  0  0  0  0  0  0  0  0  0  0
   -2.8206    4.5235   -0.3900 H   0  0  0  0  0  0  0  0  0  0  0  0
   -0.1846    1.4018    2.5065 H   0  0  0  0  0  0  0  0  0  0  0  0
   -1.7238    2.5081   -1.3956 H   0  0  0  0  0  0  0  0  0  0  0  0
   -0.0986   -2.1790    1.2925 H   0  0  0  0  0  0  0  0  0  0  0  0
   -1.2710    3.4184    3.5091 H   0  0  0  0  0  0  0  0  0  0  0  0
   -2.6974    0.1656    1.2456 H   0  0  0  0  0  0  0  0  0  0  0  0
    2.3181    1.3906    0.7983 H   0  0  0  0  0  0  0  0  0  0  0  0
   -2.4484   -3.8393   -1.7485 H   0  0  0  0  0  0  0  0  0  0  0  0
   -4.4995   -1.5609    1.3210 H   0  0  0  0  0  0  0  0  0  0  0  0
    1.5443   -3.0653    2.9485 H   0  0  0  0  0  0  0  0  0  0  0  0
    3.5684   -1.7190    3.5597 H   0  0  0  0  0  0  0  0  0  0  0  0
    3.9446    0.5195    2.4897 H   0  0  0  0  0  0  0  0  0  0  0  0
   -0.6568   -2.0932   -1.8373 H   0  0  0  0  0  0  0  0  0  0  0  0
   -4.3783   -3.5725   -0.1695 H   0  0  0  0  0  0  0  0  0  0  0  0
   -2.5921    4.9820    2.0645 H   0  0  0  0  0  0  0  0  0  0  0  0
  1  2  1  0  0  0  0
  1  7  1  0  0  0  0
  2  3  1  0  0  0  0
  2  4  1  0  0  0  0
  2  7  1  0  0  0  0
  2  8  1  0  0  0  0
  4  5  1  0  0  0  0
  4  6  1  0  0  0  0
  4  7  1  0  0  0  0
  7  8  1  0  0  0  0
  7 11  1  0  0  0  0
  7 12  1  0  0  0  0
  7 13  1  0  0  0  0
  8  9  1  0  0  0  0
  8 10  1  0  0  0  0
 13 15  1  0  0  0  0
 13 18  1  0  0  0  0
 13 19  1  0  0  0  0
 14 17  2  0  0  0  0
 14 31  2  0  0  0  0
 14 32  1  0  0  0  0
 15 20  2  0  0  0  0
 15 23  2  0  0  0  0
 16 19  2  0  0  0  0
 16 21  2  0  0  0  0
 16 33  1  0  0  0  0
 17 19  2  0  0  0  0
 17 34  1  0  0  0  0
 18 22  2  0  0  0  0
 18 29  2  0  0  0  0
 20 26  2  0  0  0  0
 20 35  1  0  0  0  0
 21 31  2  0  0  0  0
 21 36  1  0  0  0  0
 22 25  2  0  0  0  0
 22 37  1  0  0  0  0
 23 28  2  0  0  0  0
 23 38  1  0  0  0  0
 24 29  2  0  0  0  0
 24 30  2  0  0  0  0
 24 39  1  0  0  0  0
 25 30  2  0  0  0  0
 25 40  1  0  0  0  0
 26 27  2  0  0  0  0
 26 41  1  0  0  0  0
 27 28  2  0  0  0  0
 27 42  1  0  0  0  0
 28 43  1  0  0  0  0
 29 44  1  0  0  0  0
 30 45  1  0  0  0  0
 31 46  1  0  0  0  0
M  END
>  <DFT-ENERGY>
-2167.89988583

$$$$
