DIPP5CAAC-1_A1
  CDK     08132409363D

 78 81  0  0  0  0  0  0  0  0999 V2000
    0.4394    0.7613   -1.4481 Ru  0  0  0  0  0  0  0  0  0  0  0  0
    2.2172    0.7613   -2.8373 O   0  0  0  0  0  0  0  0  0  0  0  0
    1.6496   -0.1720   -0.4440 C   0  0  0  0  0  0  0  0  0  0  0  0
    1.4168   -0.4649    0.5787 H   0  0  0  0  0  0  0  0  0  0  0  0
    2.4527    1.5365   -4.0631 C   0  0  0  0  0  0  0  0  0  0  0  0
    2.8666    0.8394   -4.8222 H   0  0  0  0  0  0  0  0  0  0  0  0
    1.0303    1.9730   -4.3872 C   0  0  0  0  0  0  0  0  0  0  0  0
    0.3490    1.0979   -4.3961 H   0  0  0  0  0  0  0  0  0  0  0  0
    0.9656    2.4671   -5.3602 H   0  0  0  0  0  0  0  0  0  0  0  0
    0.6446    2.6733   -3.6202 H   0  0  0  0  0  0  0  0  0  0  0  0
    3.3855    2.6871   -3.7306 C   0  0  0  0  0  0  0  0  0  0  0  0
    3.3819    3.4549   -4.5108 H   0  0  0  0  0  0  0  0  0  0  0  0
    4.4194    2.3619   -3.5749 H   0  0  0  0  0  0  0  0  0  0  0  0
    3.0623    3.1757   -2.7900 H   0  0  0  0  0  0  0  0  0  0  0  0
    3.2094   -0.0371   -2.3323 C   0  0  0  0  0  0  0  0  0  0  0  0
    4.3785   -0.3858   -2.9853 C   0  0  0  0  0  0  0  0  0  0  0  0
    4.5975   -0.0349   -3.9912 H   0  0  0  0  0  0  0  0  0  0  0  0
    5.2797   -1.2169   -2.3278 C   0  0  0  0  0  0  0  0  0  0  0  0
    6.2024   -1.5043   -2.8367 H   0  0  0  0  0  0  0  0  0  0  0  0
    5.0297   -1.6885   -1.0425 C   0  0  0  0  0  0  0  0  0  0  0  0
    5.7548   -2.3330   -0.5483 H   0  0  0  0  0  0  0  0  0  0  0  0
    3.8600   -1.3282   -0.4009 C   0  0  0  0  0  0  0  0  0  0  0  0
    3.6668   -1.6828    0.6104 H   0  0  0  0  0  0  0  0  0  0  0  0
    2.9245   -0.5128   -1.0403 C   0  0  0  0  0  0  0  0  0  0  0  0
    1.0379    2.9492   -0.8889 Cl  0  0  0  0  0  0  0  0  0  0  0  0
   -0.3880   -0.9535   -2.8144 Cl  0  0  0  0  0  0  0  0  0  0  0  0
   -1.1481    0.6671   -0.3347 C   0  0  0  0  0  0  0  0  0  0  0  0
   -2.3775    1.4537   -0.8722 C   0  0  0  0  0  0  0  0  0  0  0  0
   -1.5410    0.0086    0.7883 N   0  0  0  0  0  0  0  0  0  0  0  0
   -3.0260    0.1539    1.1510 C   0  0  0  0  0  0  0  0  0  0  0  0
   -3.4800    1.2998    0.2152 C   0  0  0  0  0  0  0  0  0  0  0  0
   -3.6078    2.2419    0.7760 H   0  0  0  0  0  0  0  0  0  0  0  0
   -4.4639    1.0925   -0.2343 H   0  0  0  0  0  0  0  0  0  0  0  0
   -2.0263    2.9300   -1.0719 C   0  0  0  0  0  0  0  0  0  0  0  0
   -2.9190    3.5342   -1.2637 H   0  0  0  0  0  0  0  0  0  0  0  0
   -1.3534    3.0767   -1.9341 H   0  0  0  0  0  0  0  0  0  0  0  0
   -1.5143    3.3542   -0.1957 H   0  0  0  0  0  0  0  0  0  0  0  0
   -2.8307    0.8406   -2.2027 C   0  0  0  0  0  0  0  0  0  0  0  0
   -2.9445   -0.2503   -2.1368 H   0  0  0  0  0  0  0  0  0  0  0  0
   -2.0989    1.0327   -3.0064 H   0  0  0  0  0  0  0  0  0  0  0  0
   -3.7852    1.2596   -2.5358 H   0  0  0  0  0  0  0  0  0  0  0  0
   -0.7071   -0.8067    1.6592 C   0  0  0  0  0  0  0  0  0  0  0  0
    0.7152   -2.4040    3.4695 C   0  0  0  0  0  0  0  0  0  0  0  0
   -0.0897   -0.2098    2.7887 C   0  0  0  0  0  0  0  0  0  0  0  0
   -0.5459   -2.1881    1.3975 C   0  0  0  0  0  0  0  0  0  0  0  0
    0.1530   -2.9728    2.3292 C   0  0  0  0  0  0  0  0  0  0  0  0
    0.6125   -1.0291    3.6830 C   0  0  0  0  0  0  0  0  0  0  0  0
    0.2650   -4.0420    2.1473 H   0  0  0  0  0  0  0  0  0  0  0  0
    1.0927   -0.5845    4.5550 H   0  0  0  0  0  0  0  0  0  0  0  0
    1.2486   -3.0280    4.1854 H   0  0  0  0  0  0  0  0  0  0  0  0
   -0.0995    1.2923    3.0262 C   0  0  0  0  0  0  0  0  0  0  0  0
   -0.9381    1.7604    2.4428 H   0  0  0  0  0  0  0  0  0  0  0  0
    1.2155    1.8846    2.5086 C   0  0  0  0  0  0  0  0  0  0  0  0
    1.2469    2.9717    2.6448 H   0  0  0  0  0  0  0  0  0  0  0  0
    1.3308    1.7066    1.4236 H   0  0  0  0  0  0  0  0  0  0  0  0
    2.0910    1.4605    3.0085 H   0  0  0  0  0  0  0  0  0  0  0  0
   -0.3235    1.6420    4.5039 C   0  0  0  0  0  0  0  0  0  0  0  0
   -1.1950    1.1226    4.9152 H   0  0  0  0  0  0  0  0  0  0  0  0
   -0.4839    2.7191    4.6274 H   0  0  0  0  0  0  0  0  0  0  0  0
    0.5410    1.3770    5.1236 H   0  0  0  0  0  0  0  0  0  0  0  0
   -1.0412   -2.8548    0.1242 C   0  0  0  0  0  0  0  0  0  0  0  0
   -1.5786   -2.1026   -0.5158 H   0  0  0  0  0  0  0  0  0  0  0  0
    0.1520   -3.3560   -0.6993 C   0  0  0  0  0  0  0  0  0  0  0  0
   -0.1826   -3.7334   -1.6748 H   0  0  0  0  0  0  0  0  0  0  0  0
    0.7129   -4.1489   -0.2004 H   0  0  0  0  0  0  0  0  0  0  0  0
    0.8477   -2.5301   -0.9241 H   0  0  0  0  0  0  0  0  0  0  0  0
   -2.0114   -3.9985    0.4497 C   0  0  0  0  0  0  0  0  0  0  0  0
   -1.5122   -4.8286    0.9606 H   0  0  0  0  0  0  0  0  0  0  0  0
   -2.4534   -4.4036   -0.4679 H   0  0  0  0  0  0  0  0  0  0  0  0
   -2.8300   -3.6549    1.0956 H   0  0  0  0  0  0  0  0  0  0  0  0
   -3.2161    0.5161    2.6244 C   0  0  0  0  0  0  0  0  0  0  0  0
   -2.6891    1.4440    2.8901 H   0  0  0  0  0  0  0  0  0  0  0  0
   -2.8399   -0.2704    3.2920 H   0  0  0  0  0  0  0  0  0  0  0  0
   -4.2767    0.6608    2.8584 H   0  0  0  0  0  0  0  0  0  0  0  0
   -3.7702   -1.1475    0.8355 C   0  0  0  0  0  0  0  0  0  0  0  0
   -3.6760   -1.4251   -0.2230 H   0  0  0  0  0  0  0  0  0  0  0  0
   -4.8388   -1.0559    1.0570 H   0  0  0  0  0  0  0  0  0  0  0  0
   -3.3865   -1.9948    1.4250 H   0  0  0  0  0  0  0  0  0  0  0  0
  2  1  1  0  0  0  0
  3  1  2  0  0  0  0
  4  3  1  0  0  0  0
  5  2  1  0  0  0  0
  6  5  1  0  0  0  0
  7  5  1  0  0  0  0
  8  7  1  0  0  0  0
  9  7  1  0  0  0  0
 10  7  1  0  0  0  0
 11  5  1  0  0  0  0
 12 11  1  0  0  0  0
 13 11  1  0  0  0  0
 14 11  1  0  0  0  0
 15  2  1  0  0  0  0
 15 24  1  0  0  0  0
 16 15  2  0  0  0  0
 17 16  1  0  0  0  0
 18 16  1  0  0  0  0
 19 18  1  0  0  0  0
 20 18  2  0  0  0  0
 21 20  1  0  0  0  0
 22 20  1  0  0  0  0
 22 24  2  0  0  0  0
 23 22  1  0  0  0  0
 24  3  1  0  0  0  0
  1 25  1  0  0  0  0
  1 26  1  0  0  0  0
 27 28  1  0  0  0  0
 27 29  1  0  0  0  0
 28 31  1  0  0  0  0
 28 34  1  0  0  0  0
 28 38  1  0  0  0  0
 29 30  1  0  0  0  0
 30 31  1  0  0  0  0
 31 32  1  0  0  0  0
 31 33  1  0  0  0  0
 34 35  1  0  0  0  0
 34 36  1  0  0  0  0
 34 37  1  0  0  0  0
 38 39  1  0  0  0  0
 38 40  1  0  0  0  0
 38 41  1  0  0  0  0
  1 27  1  0  0  0  0
 42 45  2  0  0  0  0
 42 44  1  0  0  0  0
 43 46  2  0  0  0  0
 43 47  1  0  0  0  0
 43 50  1  0  0  0  0
 44 47  2  0  0  0  0
 45 46  1  0  0  0  0
 46 48  1  0  0  0  0
 47 49  1  0  0  0  0
 29 42  1  0  0  0  0
 51 52  1  0  0  0  0
 51 53  1  0  0  0  0
 51 57  1  0  0  0  0
 53 54  1  0  0  0  0
 53 55  1  0  0  0  0
 53 56  1  0  0  0  0
 57 58  1  0  0  0  0
 57 59  1  0  0  0  0
 57 60  1  0  0  0  0
 44 51  1  0  0  0  0
 61 62  1  0  0  0  0
 61 63  1  0  0  0  0
 61 67  1  0  0  0  0
 63 64  1  0  0  0  0
 63 65  1  0  0  0  0
 63 66  1  0  0  0  0
 67 68  1  0  0  0  0
 67 69  1  0  0  0  0
 67 70  1  0  0  0  0
 45 61  1  0  0  0  0
 71 72  1  0  0  0  0
 71 73  1  0  0  0  0
 71 74  1  0  0  0  0
 30 71  1  0  0  0  0
 75 76  1  0  0  0  0
 75 77  1  0  0  0  0
 75 78  1  0  0  0  0
 30 75  1  0  0  0  0
M  END
> <FrozenCore-PM6_ENERGY>
-182.832

> <RMSD_CONF_CG-CS>
0.414812

> <RMSD_CONF_GO-CS>
0.000000

> <UID>


> <DESCRIPTOR_DEFINITION_1>
desc1=( echo "1 * ( e( $hartree_to_kcalmol * ( ( $freeEnergyZ - $freeEnergyD ) - ( $freeEnergyX + 2*$G_Ethene - $freeEnergyD - 2*$G_Propene ) - $DDG_reference_HGII ) / $kT ) ) " | bc -l )

> <DESCRIPTOR_DEFINITION_2>
desc1=( echo "1 * ( e( $hartree_to_kcalmol * ( ( $freeEnergyZ - $freeEnergyD ) - ( $freeEnergyX + 2*$G_Ethene - $freeEnergyD - 2*$G_Propene ) - $DDG_reference_HGII ) / $kT ) ) " | bc -l )

> <DESCRIPTOR_DEFINITION_3>
desc1=( echo "1 * ( e( $hartree_to_kcalmol * ( ( $freeEnergyZ - $freeEnergyD ) - ( $freeEnergyX + 2*$G_Ethene - $freeEnergyD - 2*$G_Propene ) - $DDG_reference_HGII ) / $kT ) ) " | bc -l )

> <WEIGHT_DEFINITION_1>
w1=$( echo "1 / ( 1 + e( $hartree_to_kcalmol * ( ( ( $freeEnergyX + 2*$G_Ethene - $freeEnergyD - 2*$G_Propene ) ) - ( $DG_referenceProductionBarrier + $magnitude4 ) ) / $kT ) )" | bc -l )

> <WEIGHT_DEFINITION_2>
w1=$( echo "1 / ( 1 + e( $hartree_to_kcalmol * ( ( ( $freeEnergyX + 2*$G_Ethene - $freeEnergyD - 2*$G_Propene ) ) - ( $DG_referenceProductionBarrier + $magnitude4 ) ) / $kT ) )" | bc -l )

> <WEIGHT_DEFINITION_3>
w1=$( echo "1 / ( 1 + e( $hartree_to_kcalmol * ( ( ( $freeEnergyX + 2*$G_Ethene - $freeEnergyD - 2*$G_Propene ) ) - ( $DG_referenceProductionBarrier + $magnitude4 ) ) / $kT ) )" | bc -l )

> <WEIGHT_DEFINITION_4>
w1=$( echo "1 / ( 1 + e( $hartree_to_kcalmol * ( ( ( $freeEnergyX + 2*$G_Ethene - $freeEnergyD - 2*$G_Propene ) ) - ( $DG_referenceProductionBarrier + $magnitude4 ) ) / $kT ) )" | bc -l )

> <CALCULATION_OF_OVERALL_FITNESS>
fitness=$( echo "( $desc1 + $desc2 + $desc3 ) * ( $w1 * $w2 * $w3 * $w4 )" | bc -l )

> <freeEnergyA>
-2312.34025849

> <freeEnergyF>
-2312.31265011

> <freeEnergyE>
-2312.34025849

> <freeEnergyC>
-1967.07542134

> <freeEnergyL>
-834.463809513

> <freeEnergyX>
-2045.60300538

> <freeEnergyZ>
-1967.0466344

> <freeEnergyD>
-1967.096705

> <G_Propene>
-117.738020895

> <G_Ethene>
-78.4716324751

> <G_HoveydaProd>
-502.204109499

> <G_SIMes>
-924.27249048

> <G_HG_RuCl2_SIMes>
-2402.13728523

> <DG_referenceProductionBarrier>
0.01468968

> <DG_referencePrecursorStabilityHII>
-0.0052201621

> <DG_referencePrecursorStabilityHI>
0.0117775312

> <DDG_referencePrecursorStability>
.0169976933

> <DG_referenceSynt>
0.0226072217

> <hartree_to_kcalmol>
627.49467516

> <boltzmann_constant>
0.0000000000000000000000138066

> <avogadro_number>
602214000000000000000000

> <jmol_to_kcalmol>
0.00023901

> <temp>
313.15

> <kT>
.6223089948281258706000000000

> <magnitude1>
1.43290809

> <magnitude2>
2.86581618

> <magnitude3>
4.29872427

> <magnitude4>
5.73163236

> <DFT_IDENTIFIER>
1723608302951

> <DFT_MACHINE>
158.39.114.73

> <XTB_IDENTIFIER>
NREC

> <XTB_MACHINE>
NREC

> <DESCRIPTOR_1>
3.95193197700445339709

> <DESCRIPTOR_2>
14.805197340478497432

> <DESCRIPTOR_3>
0.0000000001

> <WEIGHT_1>
.99310604261806748448

> <WEIGHT_2>
.99996101787861318103

> <WEIGHT_3>
.99999999999999990082

> <WEIGHT_4>
.99999999991873501899

> <FITNESS>
18.62709231406573472774

$$$$
