
  CDK     08132407303D

 73 76  0  0  0  0  0  0  0  0999 V2000
   -3.7707    0.1529   -1.8746 C   0  0  0  0  0  0  0  0  0  0  0  0
   -3.6467    1.2170   -2.1429 H   0  0  0  0  0  0  0  0  0  0  0  0
   -4.7774   -0.1969   -2.1957 H   0  0  0  0  0  0  0  0  0  0  0  0
   -3.0310   -0.4365   -2.4533 H   0  0  0  0  0  0  0  0  0  0  0  0
   -3.6294   -0.0771   -0.3872 C   0  0  0  0  0  0  0  0  0  0  0  0
   -3.6987   -1.1302   -0.0548 H   0  0  0  0  0  0  0  0  0  0  0  0
   -4.0433    0.8766    0.5799 C   0  0  0  0  0  0  0  0  0  0  0  0
   -4.2430    1.8968    0.2066 H   0  0  0  0  0  0  0  0  0  0  0  0
   -4.7585    0.4324    1.8353 C   0  0  0  0  0  0  0  0  0  0  0  0
   -4.8116    1.2269    2.6032 H   0  0  0  0  0  0  0  0  0  0  0  0
   -5.8009    0.1563    1.5657 H   0  0  0  0  0  0  0  0  0  0  0  0
   -4.2666   -0.4622    2.2659 H   0  0  0  0  0  0  0  0  0  0  0  0
   -2.1896    1.6342    1.7527 C   0  0  0  0  0  0  0  0  0  0  0  0
   -2.3668    1.2244    2.7708 H   0  0  0  0  0  0  0  0  0  0  0  0
   -2.3081    2.7330    1.6217 H   0  0  0  0  0  0  0  0  0  0  0  0
   -1.6624    0.5610    0.3667 Ru  0  0  0  0  0  0  0  0  0  0  0  0
   -1.7366   -1.4465    1.6890 Cl  0  0  0  0  0  0  0  0  0  0  0  0
   -1.5596    2.4397   -1.1227 Cl  0  0  0  0  0  0  0  0  0  0  0  0
    0.3185    0.4400    0.3464 C   0  0  0  0  0  0  0  0  0  0  0  0
    1.2344    0.8919    1.2416 N   0  0  0  0  0  0  0  0  0  0  0  0
    2.6072    0.6540    0.7453 C   0  0  0  0  0  0  0  0  0  0  0  0
    2.3808   -0.4179   -0.3312 C   0  0  0  0  0  0  0  0  0  0  0  0
    0.9639   -0.2022   -0.6564 N   0  0  0  0  0  0  0  0  0  0  0  0
    3.0205    1.5902    0.3121 H   0  0  0  0  0  0  0  0  0  0  0  0
    3.2697    0.3184    1.5638 H   0  0  0  0  0  0  0  0  0  0  0  0
    2.5382   -1.4455    0.0663 H   0  0  0  0  0  0  0  0  0  0  0  0
    3.0295   -0.2767   -1.2161 H   0  0  0  0  0  0  0  0  0  0  0  0
    0.9507    1.6936    2.3991 C   0  0  0  0  0  0  0  0  0  0  0  0
    0.4197    3.2264    4.6721 C   0  0  0  0  0  0  0  0  0  0  0  0
    0.8023    1.0397    3.6502 C   0  0  0  0  0  0  0  0  0  0  0  0
    0.8474    3.1030    2.2683 C   0  0  0  0  0  0  0  0  0  0  0  0
    0.5775    3.8503    3.4301 C   0  0  0  0  0  0  0  0  0  0  0  0
    0.5338    1.8359    4.7786 C   0  0  0  0  0  0  0  0  0  0  0  0
    0.4892    4.9431    3.3555 H   0  0  0  0  0  0  0  0  0  0  0  0
    0.4093    1.3537    5.7580 H   0  0  0  0  0  0  0  0  0  0  0  0
    0.2065    3.8301    5.5666 H   0  0  0  0  0  0  0  0  0  0  0  0
    1.0728    3.8143    0.9413 C   0  0  0  0  0  0  0  0  0  0  0  0
    0.9300    3.0738    0.1288 H   0  0  0  0  0  0  0  0  0  0  0  0
    0.9702   -0.4660    3.7961 C   0  0  0  0  0  0  0  0  0  0  0  0
    0.7998   -0.9155    2.7982 H   0  0  0  0  0  0  0  0  0  0  0  0
    2.5125    4.3631    0.8790 C   0  0  0  0  0  0  0  0  0  0  0  0
    3.2714    3.5741    1.0543 H   0  0  0  0  0  0  0  0  0  0  0  0
    2.6677    5.1425    1.6544 H   0  0  0  0  0  0  0  0  0  0  0  0
    2.7131    4.8227   -0.1105 H   0  0  0  0  0  0  0  0  0  0  0  0
    0.0659    4.9450    0.6872 C   0  0  0  0  0  0  0  0  0  0  0  0
   -0.9740    4.5719    0.7362 H   0  0  0  0  0  0  0  0  0  0  0  0
    0.2158    5.3563   -0.3307 H   0  0  0  0  0  0  0  0  0  0  0  0
    0.1894    5.7816    1.4060 H   0  0  0  0  0  0  0  0  0  0  0  0
    2.4039   -0.7962    4.2552 C   0  0  0  0  0  0  0  0  0  0  0  0
    2.5547   -1.8940    4.3087 H   0  0  0  0  0  0  0  0  0  0  0  0
    2.6016   -0.3756    5.2636 H   0  0  0  0  0  0  0  0  0  0  0  0
    3.1701   -0.3776    3.5714 H   0  0  0  0  0  0  0  0  0  0  0  0
   -0.0554   -1.0942    4.7494 C   0  0  0  0  0  0  0  0  0  0  0  0
    0.0934   -0.7665    5.7995 H   0  0  0  0  0  0  0  0  0  0  0  0
    0.0447   -2.1979    4.7314 H   0  0  0  0  0  0  0  0  0  0  0  0
   -1.0875   -0.8510    4.4341 H   0  0  0  0  0  0  0  0  0  0  0  0
    0.2121   -0.9737   -1.6467 C   0  0  0  0  0  0  0  0  0  0  0  0
   -0.1786   -1.4390   -4.0954 C   0  0  0  0  0  0  0  0  0  0  0  0
   -0.6936   -3.2130   -2.3605 C   0  0  0  0  0  0  0  0  0  0  0  0
   -0.2230   -2.9435   -3.7960 C   0  0  0  0  0  0  0  0  0  0  0  0
    0.1756   -2.4753   -1.3337 C   0  0  0  0  0  0  0  0  0  0  0  0
    0.6847   -0.6829   -3.0760 C   0  0  0  0  0  0  0  0  0  0  0  0
   -1.2127   -1.0273   -4.0651 H   0  0  0  0  0  0  0  0  0  0  0  0
   -1.7483   -2.8743   -2.2465 H   0  0  0  0  0  0  0  0  0  0  0  0
    0.7950   -3.3742   -3.9335 H   0  0  0  0  0  0  0  0  0  0  0  0
    1.2122   -2.8798   -1.3700 H   0  0  0  0  0  0  0  0  0  0  0  0
    1.7460   -1.0040   -3.1800 H   0  0  0  0  0  0  0  0  0  0  0  0
   -0.8330   -0.5779   -1.5740 H   0  0  0  0  0  0  0  0  0  0  0  0
    0.1984   -1.2536   -5.1220 H   0  0  0  0  0  0  0  0  0  0  0  0
   -0.6932   -4.3011   -2.1449 H   0  0  0  0  0  0  0  0  0  0  0  0
   -0.8827   -3.4603   -4.5234 H   0  0  0  0  0  0  0  0  0  0  0  0
   -0.2119   -2.6171   -0.3038 H   0  0  0  0  0  0  0  0  0  0  0  0
    0.6481    0.4110   -3.2528 H   0  0  0  0  0  0  0  0  0  0  0  0
  1  2  1  0  0  0  0
  1  5  1  0  0  0  0
  1  3  1  0  0  0  0
  1  4  1  0  0  0  0
  5  6  1  0  0  0  0
  5 16  1  0  0  0  0
  5  7  1  0  0  0  0
  7  9  1  0  0  0  0
  7  8  1  0  0  0  0
  9 10  1  0  0  0  0
  9 11  1  0  0  0  0
  9 12  1  0  0  0  0
 13 14  1  0  0  0  0
 13 15  1  0  0  0  0
  7 13  1  0  0  0  0
 13 16  1  0  0  0  0
 16 17  1  0  0  0  0
 16 18  1  0  0  0  0
 19 20  1  0  0  0  0
 19 23  1  0  0  0  0
 20 21  1  0  0  0  0
 21 24  1  0  0  0  0
 21 25  1  0  0  0  0
 21 22  1  0  0  0  0
 22 26  1  0  0  0  0
 22 27  1  0  0  0  0
 22 23  1  0  0  0  0
 28 31  2  0  0  0  0
 31 32  1  0  0  0  0
 29 32  2  0  0  0  0
 29 33  1  0  0  0  0
 30 33  2  0  0  0  0
 28 30  1  0  0  0  0
 32 34  1  0  0  0  0
 33 35  1  0  0  0  0
 20 28  1  0  0  0  0
 29 36  1  0  0  0  0
 37 38  1  0  0  0  0
 31 37  1  0  0  0  0
 39 40  1  0  0  0  0
 30 39  1  0  0  0  0
 41 42  1  0  0  0  0
 41 43  1  0  0  0  0
 41 44  1  0  0  0  0
 37 41  1  0  0  0  0
 45 46  1  0  0  0  0
 45 47  1  0  0  0  0
 45 48  1  0  0  0  0
 37 45  1  0  0  0  0
 49 50  1  0  0  0  0
 49 51  1  0  0  0  0
 49 52  1  0  0  0  0
 39 49  1  0  0  0  0
 53 54  1  0  0  0  0
 53 55  1  0  0  0  0
 53 56  1  0  0  0  0
 39 53  1  0  0  0  0
 57 68  1  0  0  0  0
 57 61  1  0  0  0  0
 57 62  1  0  0  0  0
 58 63  1  0  0  0  0
 58 69  1  0  0  0  0
 58 60  1  0  0  0  0
 58 62  1  0  0  0  0
 59 64  1  0  0  0  0
 59 70  1  0  0  0  0
 59 61  1  0  0  0  0
 59 60  1  0  0  0  0
 60 65  1  0  0  0  0
 60 71  1  0  0  0  0
 61 66  1  0  0  0  0
 61 72  1  0  0  0  0
 62 67  1  0  0  0  0
 62 73  1  0  0  0  0
 23 57  1  0  0  0  0
 16 19  1  0  0  0  0
M  END
>  <DFT-ENERGY>
-2138.98967245

$$$$
