
  CDK     08132413293D

 67 71  0  0  0  0  0  0  0  0999 V2000
   -1.8370    1.7368   -2.6930 H   0  0  0  0  0  0  0  0  0  0  0  0
   -1.6552    2.9535   -2.6689 C   0  0  0  0  0  0  0  0  0  0  0  0
   -2.1215    3.0545   -3.6712 H   0  0  0  0  0  0  0  0  0  0  0  0
   -0.1810    2.9875   -2.4455 C   0  0  0  0  0  0  0  0  0  0  0  0
    0.2422    3.8541   -1.9130 H   0  0  0  0  0  0  0  0  0  0  0  0
    0.4442    2.5659   -3.2511 H   0  0  0  0  0  0  0  0  0  0  0  0
   -1.0029    1.6049   -1.1331 Ru  0  0  0  0  0  0  0  0  0  0  0  0
   -2.3746    3.2044   -1.4005 C   0  0  0  0  0  0  0  0  0  0  0  0
   -2.0826    4.0719   -0.7941 H   0  0  0  0  0  0  0  0  0  0  0  0
   -3.4413    2.9221   -1.3608 H   0  0  0  0  0  0  0  0  0  0  0  0
   -0.2440    3.0938    0.6375 Cl  0  0  0  0  0  0  0  0  0  0  0  0
   -0.4591   -0.2003   -2.6025 Cl  0  0  0  0  0  0  0  0  0  0  0  0
   -0.2388    0.4004    0.3162 C   0  0  0  0  0  0  0  0  0  0  0  0
   -1.0785   -0.1268    1.2393 N   0  0  0  0  0  0  0  0  0  0  0  0
   -0.3948   -1.1452    2.0601 C   0  0  0  0  0  0  0  0  0  0  0  0
    1.0868   -0.8555    1.7489 C   0  0  0  0  0  0  0  0  0  0  0  0
    1.0021   -0.0693    0.5043 N   0  0  0  0  0  0  0  0  0  0  0  0
   -0.6419   -1.0277    3.1313 H   0  0  0  0  0  0  0  0  0  0  0  0
   -0.6995   -2.1628    1.7333 H   0  0  0  0  0  0  0  0  0  0  0  0
    1.6804   -1.7774    1.6024 H   0  0  0  0  0  0  0  0  0  0  0  0
    1.5673   -0.2484    2.5466 H   0  0  0  0  0  0  0  0  0  0  0  0
   -2.4827    0.1887    1.2454 C   0  0  0  0  0  0  0  0  0  0  0  0
   -5.1665    0.9503    1.1579 C   0  0  0  0  0  0  0  0  0  0  0  0
   -3.3439   -0.4379    0.3043 C   0  0  0  0  0  0  0  0  0  0  0  0
   -2.9579    1.1427    2.1839 C   0  0  0  0  0  0  0  0  0  0  0  0
   -4.3127    1.5094    2.1163 C   0  0  0  0  0  0  0  0  0  0  0  0
   -4.6890   -0.0203    0.2721 C   0  0  0  0  0  0  0  0  0  0  0  0
   -4.7027    2.2553    2.8225 H   0  0  0  0  0  0  0  0  0  0  0  0
   -5.3745   -0.4781   -0.4539 H   0  0  0  0  0  0  0  0  0  0  0  0
   -6.2201    1.2634    1.1128 H   0  0  0  0  0  0  0  0  0  0  0  0
   -2.0614    1.7126    3.2733 C   0  0  0  0  0  0  0  0  0  0  0  0
   -1.0143    1.5804    2.9356 H   0  0  0  0  0  0  0  0  0  0  0  0
   -2.8886   -1.6093   -0.5548 C   0  0  0  0  0  0  0  0  0  0  0  0
   -1.7952   -1.5236   -0.7090 H   0  0  0  0  0  0  0  0  0  0  0  0
   -2.2729    0.9272    4.5832 C   0  0  0  0  0  0  0  0  0  0  0  0
   -2.1184   -0.1629    4.4490 H   0  0  0  0  0  0  0  0  0  0  0  0
   -3.3084    1.0641    4.9595 H   0  0  0  0  0  0  0  0  0  0  0  0
   -1.5759    1.2816    5.3703 H   0  0  0  0  0  0  0  0  0  0  0  0
   -2.2741    3.2142    3.5080 C   0  0  0  0  0  0  0  0  0  0  0  0
   -2.1436    3.7791    2.5661 H   0  0  0  0  0  0  0  0  0  0  0  0
   -1.5296    3.5895    4.2389 H   0  0  0  0  0  0  0  0  0  0  0  0
   -3.2790    3.4310    3.9264 H   0  0  0  0  0  0  0  0  0  0  0  0
   -3.1772   -2.9285    0.1905 C   0  0  0  0  0  0  0  0  0  0  0  0
   -2.7998   -3.7949   -0.3903 H   0  0  0  0  0  0  0  0  0  0  0  0
   -4.2687   -3.0651    0.3401 H   0  0  0  0  0  0  0  0  0  0  0  0
   -2.7038   -2.9515    1.1928 H   0  0  0  0  0  0  0  0  0  0  0  0
   -3.5331   -1.6307   -1.9465 C   0  0  0  0  0  0  0  0  0  0  0  0
   -4.6188   -1.8564   -1.8990 H   0  0  0  0  0  0  0  0  0  0  0  0
   -3.0580   -2.4141   -2.5686 H   0  0  0  0  0  0  0  0  0  0  0  0
   -3.3903   -0.6637   -2.4652 H   0  0  0  0  0  0  0  0  0  0  0  0
    2.1657    0.4200   -0.2380 C   0  0  0  0  0  0  0  0  0  0  0  0
    4.2560    1.8182   -0.2034 C   0  0  0  0  0  0  0  0  0  0  0  0
    4.0766   -0.1671   -1.7678 C   0  0  0  0  0  0  0  0  0  0  0  0
    5.0193    0.6928   -0.9149 C   0  0  0  0  0  0  0  0  0  0  0  0
    2.9125   -0.7234   -0.9366 C   0  0  0  0  0  0  0  0  0  0  0  0
    3.0980    1.2669    0.6398 C   0  0  0  0  0  0  0  0  0  0  0  0
    3.8439    2.5207   -0.9621 H   0  0  0  0  0  0  0  0  0  0  0  0
    3.6604    0.4516   -2.5940 H   0  0  0  0  0  0  0  0  0  0  0  0
    5.5136    0.0481   -0.1525 H   0  0  0  0  0  0  0  0  0  0  0  0
    3.3102   -1.4319   -0.1740 H   0  0  0  0  0  0  0  0  0  0  0  0
    3.5127    0.6406    1.4625 H   0  0  0  0  0  0  0  0  0  0  0  0
    1.7234    1.0779   -1.0162 H   0  0  0  0  0  0  0  0  0  0  0  0
    4.9411    2.4132    0.4351 H   0  0  0  0  0  0  0  0  0  0  0  0
    4.6324   -0.9984   -2.2484 H   0  0  0  0  0  0  0  0  0  0  0  0
    5.8314    1.1142   -1.5432 H   0  0  0  0  0  0  0  0  0  0  0  0
    2.1980   -1.2803   -1.5751 H   0  0  0  0  0  0  0  0  0  0  0  0
    2.5105    2.0873    1.0990 H   0  0  0  0  0  0  0  0  0  0  0  0
  1  2  1  0  0  0  0
  1  7  1  0  0  0  0
  2  3  1  0  0  0  0
  2  4  1  0  0  0  0
  4  5  1  0  0  0  0
  4  6  1  0  0  0  0
  7  8  1  0  0  0  0
  4  7  1  0  0  0  0
  2  8  1  0  0  0  0
  8  9  1  0  0  0  0
  8 10  1  0  0  0  0
  7 11  1  0  0  0  0
  7 12  1  0  0  0  0
 13 14  1  0  0  0  0
 13 17  1  0  0  0  0
 14 15  1  0  0  0  0
 15 18  1  0  0  0  0
 15 19  1  0  0  0  0
 15 16  1  0  0  0  0
 16 20  1  0  0  0  0
 16 21  1  0  0  0  0
 16 17  1  0  0  0  0
 22 25  2  0  0  0  0
 25 26  1  0  0  0  0
 23 26  2  0  0  0  0
 23 27  1  0  0  0  0
 24 27  2  0  0  0  0
 22 24  1  0  0  0  0
 26 28  1  0  0  0  0
 27 29  1  0  0  0  0
 14 22  1  0  0  0  0
 23 30  1  0  0  0  0
 31 32  1  0  0  0  0
 25 31  1  0  0  0  0
 33 34  1  0  0  0  0
 24 33  1  0  0  0  0
 35 36  1  0  0  0  0
 35 37  1  0  0  0  0
 35 38  1  0  0  0  0
 31 35  1  0  0  0  0
 39 40  1  0  0  0  0
 39 41  1  0  0  0  0
 39 42  1  0  0  0  0
 31 39  1  0  0  0  0
 43 44  1  0  0  0  0
 43 45  1  0  0  0  0
 43 46  1  0  0  0  0
 33 43  1  0  0  0  0
 47 48  1  0  0  0  0
 47 49  1  0  0  0  0
 47 50  1  0  0  0  0
 33 47  1  0  0  0  0
 51 62  1  0  0  0  0
 51 55  1  0  0  0  0
 51 56  1  0  0  0  0
 52 57  1  0  0  0  0
 52 63  1  0  0  0  0
 52 54  1  0  0  0  0
 52 56  1  0  0  0  0
 53 58  1  0  0  0  0
 53 64  1  0  0  0  0
 53 55  1  0  0  0  0
 53 54  1  0  0  0  0
 54 59  1  0  0  0  0
 54 65  1  0  0  0  0
 55 60  1  0  0  0  0
 55 66  1  0  0  0  0
 56 61  1  0  0  0  0
 56 67  1  0  0  0  0
 17 51  1  0  0  0  0
  7 13  1  0  0  0  0
M  END
>  <DFT-ENERGY>
-2060.44405529

$$$$
