
  CDK     08132416283D

 67 70  0  0  0  0  0  0  0  0999 V2000
    1.5963    0.9585   -0.5272 Ru  0  0  0  0  0  0  0  0  0  0  0  0
    3.1852    1.0382   -1.6821 C   0  0  0  0  0  0  0  0  0  0  0  0
    3.0122    1.4117   -2.7074 H   0  0  0  0  0  0  0  0  0  0  0  0
    3.4762    2.1930   -0.6460 C   0  0  0  0  0  0  0  0  0  0  0  0
    3.5427    3.1301   -1.2278 H   0  0  0  0  0  0  0  0  0  0  0  0
    2.3849    2.4373    0.4771 C   0  0  0  0  0  0  0  0  0  0  0  0
    2.7406    2.1847    1.4922 H   0  0  0  0  0  0  0  0  0  0  0  0
    1.8681    3.4088    0.3742 H   0  0  0  0  0  0  0  0  0  0  0  0
    4.4061    1.9139   -0.1182 H   0  0  0  0  0  0  0  0  0  0  0  0
    3.8788    0.1837   -1.5835 H   0  0  0  0  0  0  0  0  0  0  0  0
    0.5159    2.4440   -2.0523 Cl  0  0  0  0  0  0  0  0  0  0  0  0
    2.7624   -0.6139    0.8423 Cl  0  0  0  0  0  0  0  0  0  0  0  0
   -0.0487   -0.1338   -0.3680 C   0  0  0  0  0  0  0  0  0  0  0  0
   -0.8886   -0.1574    0.6936 N   0  0  0  0  0  0  0  0  0  0  0  0
   -2.0613   -1.0081    0.3977 C   0  0  0  0  0  0  0  0  0  0  0  0
   -1.5475   -1.8569   -0.7754 C   0  0  0  0  0  0  0  0  0  0  0  0
   -0.4738   -1.0020   -1.3107 N   0  0  0  0  0  0  0  0  0  0  0  0
   -2.3459   -1.6086    1.2801 H   0  0  0  0  0  0  0  0  0  0  0  0
   -2.9236   -0.3733    0.1001 H   0  0  0  0  0  0  0  0  0  0  0  0
   -2.3267   -2.0490   -1.5356 H   0  0  0  0  0  0  0  0  0  0  0  0
   -1.1327   -2.8314   -0.4332 H   0  0  0  0  0  0  0  0  0  0  0  0
   -0.7768    0.7311    1.8218 C   0  0  0  0  0  0  0  0  0  0  0  0
   -0.4748    2.4500    3.9984 C   0  0  0  0  0  0  0  0  0  0  0  0
   -1.2335    2.0706    1.7057 C   0  0  0  0  0  0  0  0  0  0  0  0
   -0.2084    0.2270    3.0211 C   0  0  0  0  0  0  0  0  0  0  0  0
   -0.0659    1.1160    4.1011 C   0  0  0  0  0  0  0  0  0  0  0  0
   -1.0584    2.9171    2.8164 C   0  0  0  0  0  0  0  0  0  0  0  0
    0.3814    0.7548    5.0371 H   0  0  0  0  0  0  0  0  0  0  0  0
   -1.3932    3.9614    2.7515 H   0  0  0  0  0  0  0  0  0  0  0  0
   -0.3445    3.1312    4.8523 H   0  0  0  0  0  0  0  0  0  0  0  0
    0.1838   -1.2354    3.1762 C   0  0  0  0  0  0  0  0  0  0  0  0
    0.3628   -1.6355    2.1582 H   0  0  0  0  0  0  0  0  0  0  0  0
   -1.9731    2.5752    0.4738 C   0  0  0  0  0  0  0  0  0  0  0  0
   -1.6680    1.9554   -0.3929 H   0  0  0  0  0  0  0  0  0  0  0  0
   -0.9699   -2.0205    3.8326 C   0  0  0  0  0  0  0  0  0  0  0  0
   -1.9260   -1.9092    3.2818 H   0  0  0  0  0  0  0  0  0  0  0  0
   -1.1486   -1.6589    4.8670 H   0  0  0  0  0  0  0  0  0  0  0  0
   -0.7271   -3.1016    3.8879 H   0  0  0  0  0  0  0  0  0  0  0  0
    1.4782   -1.4327    3.9772 C   0  0  0  0  0  0  0  0  0  0  0  0
    2.3035   -0.8395    3.5415 H   0  0  0  0  0  0  0  0  0  0  0  0
    1.7755   -2.5004    3.9517 H   0  0  0  0  0  0  0  0  0  0  0  0
    1.3514   -1.1554    5.0445 H   0  0  0  0  0  0  0  0  0  0  0  0
   -3.4931    2.4225    0.6879 C   0  0  0  0  0  0  0  0  0  0  0  0
   -4.0477    2.7221   -0.2249 H   0  0  0  0  0  0  0  0  0  0  0  0
   -3.8364    3.0676    1.5237 H   0  0  0  0  0  0  0  0  0  0  0  0
   -3.7799    1.3820    0.9412 H   0  0  0  0  0  0  0  0  0  0  0  0
   -1.6357    4.0287    0.1157 C   0  0  0  0  0  0  0  0  0  0  0  0
   -2.0150    4.7427    0.8761 H   0  0  0  0  0  0  0  0  0  0  0  0
   -2.1061    4.2931   -0.8516 H   0  0  0  0  0  0  0  0  0  0  0  0
   -0.5453    4.1680   -0.0036 H   0  0  0  0  0  0  0  0  0  0  0  0
    0.3764   -1.3590   -2.4516 C   0  0  0  0  0  0  0  0  0  0  0  0
    2.2388   -2.8020   -3.3383 C   0  0  0  0  0  0  0  0  0  0  0  0
    0.4822   -1.8741   -4.9122 C   0  0  0  0  0  0  0  0  0  0  0  0
    1.4372   -3.0410   -4.6250 C   0  0  0  0  0  0  0  0  0  0  0  0
   -0.4468   -1.5996   -3.7209 C   0  0  0  0  0  0  0  0  0  0  0  0
    1.3166   -2.5340   -2.1416 C   0  0  0  0  0  0  0  0  0  0  0  0
    2.9076   -1.9230   -3.4795 H   0  0  0  0  0  0  0  0  0  0  0  0
    1.0753   -0.9563   -5.1234 H   0  0  0  0  0  0  0  0  0  0  0  0
    0.8466   -3.9794   -4.5184 H   0  0  0  0  0  0  0  0  0  0  0  0
   -1.1151   -2.4775   -3.5689 H   0  0  0  0  0  0  0  0  0  0  0  0
    0.7105   -3.4443   -1.9312 H   0  0  0  0  0  0  0  0  0  0  0  0
    0.9933   -0.4465   -2.6251 H   0  0  0  0  0  0  0  0  0  0  0  0
    2.9005   -3.6655   -3.1219 H   0  0  0  0  0  0  0  0  0  0  0  0
   -0.1192   -2.0750   -5.8224 H   0  0  0  0  0  0  0  0  0  0  0  0
    2.1215   -3.1969   -5.4846 H   0  0  0  0  0  0  0  0  0  0  0  0
   -1.0924   -0.7186   -3.9134 H   0  0  0  0  0  0  0  0  0  0  0  0
    1.9012   -2.3012   -1.2272 H   0  0  0  0  0  0  0  0  0  0  0  0
  2  4  1  0  0  0  0
  2  1  1  0  0  0  0
  2  3  1  0  0  0  0
  4  6  1  0  0  0  0
  4  5  1  0  0  0  0
  6  1  1  0  0  0  0
  6  8  1  0  0  0  0
  7  6  1  0  0  0  0
  9  4  1  0  0  0  0
 10  2  1  0  0  0  0
  1 11  1  0  0  0  0
  1 12  1  0  0  0  0
 13 14  1  0  0  0  0
 13 17  1  0  0  0  0
 14 15  1  0  0  0  0
 15 18  1  0  0  0  0
 15 19  1  0  0  0  0
 15 16  1  0  0  0  0
 16 20  1  0  0  0  0
 16 21  1  0  0  0  0
 16 17  1  0  0  0  0
 22 25  2  0  0  0  0
 25 26  1  0  0  0  0
 23 26  2  0  0  0  0
 23 27  1  0  0  0  0
 24 27  2  0  0  0  0
 22 24  1  0  0  0  0
 26 28  1  0  0  0  0
 27 29  1  0  0  0  0
 14 22  1  0  0  0  0
 23 30  1  0  0  0  0
 31 32  1  0  0  0  0
 25 31  1  0  0  0  0
 33 34  1  0  0  0  0
 24 33  1  0  0  0  0
 35 36  1  0  0  0  0
 35 37  1  0  0  0  0
 35 38  1  0  0  0  0
 31 35  1  0  0  0  0
 39 40  1  0  0  0  0
 39 41  1  0  0  0  0
 39 42  1  0  0  0  0
 31 39  1  0  0  0  0
 43 44  1  0  0  0  0
 43 45  1  0  0  0  0
 43 46  1  0  0  0  0
 33 43  1  0  0  0  0
 47 48  1  0  0  0  0
 47 49  1  0  0  0  0
 47 50  1  0  0  0  0
 33 47  1  0  0  0  0
 51 62  1  0  0  0  0
 51 55  1  0  0  0  0
 51 56  1  0  0  0  0
 52 57  1  0  0  0  0
 52 63  1  0  0  0  0
 52 54  1  0  0  0  0
 52 56  1  0  0  0  0
 53 58  1  0  0  0  0
 53 64  1  0  0  0  0
 53 55  1  0  0  0  0
 53 54  1  0  0  0  0
 54 59  1  0  0  0  0
 54 65  1  0  0  0  0
 55 60  1  0  0  0  0
 55 66  1  0  0  0  0
 56 61  1  0  0  0  0
 56 67  1  0  0  0  0
 17 51  1  0  0  0  0
  1 13  1  0  0  0  0
M  END
>  <DFT-ENERGY>
-2060.4813593

$$$$
