
  CDK     08142402553D

 78 82  0  0  0  0  0  0  0  0999 V2000
   -3.4303   -0.3954   -3.1172 C   0  0  0  0  0  0  0  0  0  0  0  0
   -3.2656    0.6615   -3.3897 H   0  0  0  0  0  0  0  0  0  0  0  0
   -4.3697   -0.7582   -3.5921 H   0  0  0  0  0  0  0  0  0  0  0  0
   -2.6061   -0.9984   -3.5406 H   0  0  0  0  0  0  0  0  0  0  0  0
   -3.5542   -0.5866   -1.6270 C   0  0  0  0  0  0  0  0  0  0  0  0
   -3.7315   -1.6250   -1.2910 H   0  0  0  0  0  0  0  0  0  0  0  0
   -4.0507    0.4131   -0.7517 C   0  0  0  0  0  0  0  0  0  0  0  0
   -4.1106    1.4359   -1.1638 H   0  0  0  0  0  0  0  0  0  0  0  0
   -4.9825    0.0494    0.3804 C   0  0  0  0  0  0  0  0  0  0  0  0
   -5.1064    0.8674    1.1147 H   0  0  0  0  0  0  0  0  0  0  0  0
   -5.9839   -0.1693   -0.0495 H   0  0  0  0  0  0  0  0  0  0  0  0
   -4.6268   -0.8623    0.8999 H   0  0  0  0  0  0  0  0  0  0  0  0
   -2.3443    1.0612    0.6816 C   0  0  0  0  0  0  0  0  0  0  0  0
   -2.7548    0.6755    1.6385 H   0  0  0  0  0  0  0  0  0  0  0  0
   -2.3498    2.1633    0.5383 H   0  0  0  0  0  0  0  0  0  0  0  0
   -1.6523   -0.0572   -0.5951 Ru  0  0  0  0  0  0  0  0  0  0  0  0
   -2.1378   -1.9998    0.7356 Cl  0  0  0  0  0  0  0  0  0  0  0  0
   -1.3239    1.8357   -2.0384 Cl  0  0  0  0  0  0  0  0  0  0  0  0
    1.2348    0.3209    0.2554 N   0  0  0  0  0  0  0  0  0  0  0  0
    2.6453   -0.1222   -0.1422 C   0  0  0  0  0  0  0  0  0  0  0  0
    2.3557   -0.7819   -1.4980 C   0  0  0  0  0  0  0  0  0  0  0  0
    0.9093   -1.3049   -1.4098 C   0  0  0  0  0  0  0  0  0  0  0  0
    0.2697   -0.2794   -0.4591 C   0  0  0  0  0  0  0  0  0  0  0  0
    0.2276   -1.4502   -2.7663 C   0  0  0  0  0  0  0  0  0  0  0  0
   -0.3520   -2.7250   -2.9200 C   0  0  0  0  0  0  0  0  0  0  0  0
   -0.2230   -3.5387   -1.6598 C   0  0  0  0  0  0  0  0  0  0  0  0
    0.7978   -2.7562   -0.8035 C   0  0  0  0  0  0  0  0  0  0  0  0
    0.2131   -0.5245   -3.8213 C   0  0  0  0  0  0  0  0  0  0  0  0
   -0.3648   -0.8954   -5.0446 C   0  0  0  0  0  0  0  0  0  0  0  0
   -0.9308   -2.1734   -5.2064 C   0  0  0  0  0  0  0  0  0  0  0  0
   -0.9381   -3.0897   -4.1423 C   0  0  0  0  0  0  0  0  0  0  0  0
    3.0768   -1.5852   -1.7398 H   0  0  0  0  0  0  0  0  0  0  0  0
    2.4165   -0.0140   -2.2942 H   0  0  0  0  0  0  0  0  0  0  0  0
    0.4882   -2.7380    0.2580 H   0  0  0  0  0  0  0  0  0  0  0  0
    1.7989   -3.2270   -0.8669 H   0  0  0  0  0  0  0  0  0  0  0  0
   -1.1986   -3.5869   -1.1313 H   0  0  0  0  0  0  0  0  0  0  0  0
    0.1032   -4.5793   -1.8583 H   0  0  0  0  0  0  0  0  0  0  0  0
   -1.3844   -4.0874   -4.2687 H   0  0  0  0  0  0  0  0  0  0  0  0
   -1.3769   -2.4541   -6.1719 H   0  0  0  0  0  0  0  0  0  0  0  0
   -0.3812   -0.1788   -5.8780 H   0  0  0  0  0  0  0  0  0  0  0  0
    0.6295    0.4828   -3.6879 H   0  0  0  0  0  0  0  0  0  0  0  0
    1.2512    3.3786    2.4441 C   0  0  0  0  0  0  0  0  0  0  0  0
    1.1987    2.5975    1.2732 C   0  0  0  0  0  0  0  0  0  0  0  0
    1.0633    1.1847    1.4137 C   0  0  0  0  0  0  0  0  0  0  0  0
    0.8723    0.5964    2.7000 C   0  0  0  0  0  0  0  0  0  0  0  0
    0.9387    1.4351    3.8295 C   0  0  0  0  0  0  0  0  0  0  0  0
    1.1534    2.8090    3.7142 C   0  0  0  0  0  0  0  0  0  0  0  0
    0.8078    0.9896    4.8258 H   0  0  0  0  0  0  0  0  0  0  0  0
    1.3653    4.4674    2.3469 H   0  0  0  0  0  0  0  0  0  0  0  0
    1.2161    3.4396    4.6130 H   0  0  0  0  0  0  0  0  0  0  0  0
    1.2049    3.3496   -0.0551 C   0  0  0  0  0  0  0  0  0  0  0  0
   -0.0493    4.2412   -0.1494 C   0  0  0  0  0  0  0  0  0  0  0  0
    2.4473    4.2420   -0.2413 C   0  0  0  0  0  0  0  0  0  0  0  0
    1.1426    2.6108   -0.8781 H   0  0  0  0  0  0  0  0  0  0  0  0
    2.4520    5.0746    0.4921 H   0  0  0  0  0  0  0  0  0  0  0  0
    2.4340    4.7000   -1.2511 H   0  0  0  0  0  0  0  0  0  0  0  0
    3.4009    3.6954   -0.1246 H   0  0  0  0  0  0  0  0  0  0  0  0
   -0.0244    5.0418    0.6188 H   0  0  0  0  0  0  0  0  0  0  0  0
   -0.9741    3.6515   -0.0277 H   0  0  0  0  0  0  0  0  0  0  0  0
   -0.0995    4.7207   -1.1472 H   0  0  0  0  0  0  0  0  0  0  0  0
    0.5138   -0.8660    2.9515 C   0  0  0  0  0  0  0  0  0  0  0  0
    1.5316   -1.5987    3.8453 C   0  0  0  0  0  0  0  0  0  0  0  0
   -0.8723   -0.9515    3.6198 C   0  0  0  0  0  0  0  0  0  0  0  0
    0.4380   -1.3851    1.9770 H   0  0  0  0  0  0  0  0  0  0  0  0
   -1.6388   -0.4207    3.0292 H   0  0  0  0  0  0  0  0  0  0  0  0
   -0.8466   -0.5210    4.6423 H   0  0  0  0  0  0  0  0  0  0  0  0
   -1.1934   -2.0086    3.6950 H   0  0  0  0  0  0  0  0  0  0  0  0
    2.5610   -1.5753    3.4440 H   0  0  0  0  0  0  0  0  0  0  0  0
    1.2339   -2.6605    3.9620 H   0  0  0  0  0  0  0  0  0  0  0  0
    1.5599   -1.1537    4.8613 H   0  0  0  0  0  0  0  0  0  0  0  0
    3.2154   -1.0962    0.8940 C   0  0  0  0  0  0  0  0  0  0  0  0
    2.5590   -1.9682    1.0597 H   0  0  0  0  0  0  0  0  0  0  0  0
    3.3681   -0.5804    1.8606 H   0  0  0  0  0  0  0  0  0  0  0  0
    4.2020   -1.4621    0.5471 H   0  0  0  0  0  0  0  0  0  0  0  0
    3.5996    1.0586   -0.2906 C   0  0  0  0  0  0  0  0  0  0  0  0
    4.5904    0.6725   -0.6030 H   0  0  0  0  0  0  0  0  0  0  0  0
    3.7322    1.6010    0.6650 H   0  0  0  0  0  0  0  0  0  0  0  0
    3.2501    1.7665   -1.0623 H   0  0  0  0  0  0  0  0  0  0  0  0
  1  2  1  0  0  0  0
  1  5  1  0  0  0  0
  3  1  1  0  0  0  0
  4  1  1  0  0  0  0
  5  6  1  0  0  0  0
  5 16  1  0  0  0  0
  5  7  1  0  0  0  0
  7  9  1  0  0  0  0
  7  8  1  0  0  0  0
  9 10  1  0  0  0  0
 11  9  1  0  0  0  0
 12  9  1  0  0  0  0
 13 14  1  0  0  0  0
 13 15  1  0  0  0  0
 13  7  1  0  0  0  0
 16 13  1  0  0  0  0
 16 17  1  0  0  0  0
 16 18  1  0  0  0  0
 19 20  1  0  0  0  0
 20 21  1  0  0  0  0
 21 22  1  0  0  0  0
 21 32  1  0  0  0  0
 21 33  1  0  0  0  0
 22 23  1  0  0  0  0
 22 24  1  0  0  0  0
 22 27  1  0  0  0  0
 19 23  1  0  0  0  0
 24 25  2  0  0  0  0
 24 28  1  0  0  0  0
 25 26  1  0  0  0  0
 25 31  1  0  0  0  0
 26 27  1  0  0  0  0
 26 36  1  0  0  0  0
 26 37  1  0  0  0  0
 27 34  1  0  0  0  0
 27 35  1  0  0  0  0
 28 29  2  0  0  0  0
 28 41  1  0  0  0  0
 29 30  1  0  0  0  0
 29 40  1  0  0  0  0
 30 31  2  0  0  0  0
 30 39  1  0  0  0  0
 31 38  1  0  0  0  0
 42 43  2  0  0  0  0
 42 47  1  0  0  0  0
 42 49  1  0  0  0  0
 43 44  1  0  0  0  0
 44 45  2  0  0  0  0
 45 46  1  0  0  0  0
 46 47  2  0  0  0  0
 46 48  1  0  0  0  0
 47 50  1  0  0  0  0
 19 44  1  0  0  0  0
 51 52  1  0  0  0  0
 51 53  1  0  0  0  0
 51 54  1  0  0  0  0
 52 58  1  0  0  0  0
 52 59  1  0  0  0  0
 52 60  1  0  0  0  0
 53 55  1  0  0  0  0
 53 56  1  0  0  0  0
 53 57  1  0  0  0  0
 43 51  1  0  0  0  0
 61 62  1  0  0  0  0
 61 63  1  0  0  0  0
 61 64  1  0  0  0  0
 62 68  1  0  0  0  0
 62 69  1  0  0  0  0
 62 70  1  0  0  0  0
 63 65  1  0  0  0  0
 63 66  1  0  0  0  0
 63 67  1  0  0  0  0
 45 61  1  0  0  0  0
 71 72  1  0  0  0  0
 71 73  1  0  0  0  0
 71 74  1  0  0  0  0
 20 71  1  0  0  0  0
 75 76  1  0  0  0  0
 75 77  1  0  0  0  0
 75 78  1  0  0  0  0
 20 75  1  0  0  0  0
 16 23  1  0  0  0  0
M  END
>  <DFT-ENERGY>
-2275.21416694

$$$$
