
  CDK     02062406183D

 46 49  0  0  0  0  0  0  0  0999 V2000
    1.8923    1.1695   -0.2274 Ru  0  0  0  0  0  0  0  0  0  0  0  0
    3.0257    1.0982   -1.8303 C   0  0  0  0  0  0  0  0  0  0  0  0
    2.5865    1.5307   -2.7463 H   0  0  0  0  0  0  0  0  0  0  0  0
    3.7672    2.1525   -0.9340 C   0  0  0  0  0  0  0  0  0  0  0  0
    3.8016    3.0815   -1.5325 H   0  0  0  0  0  0  0  0  0  0  0  0
    3.0608    2.5852    0.4310 C   0  0  0  0  0  0  0  0  0  0  0  0
    3.6687    2.3199    1.3153 H   0  0  0  0  0  0  0  0  0  0  0  0
    2.6659    3.6160    0.3957 H   0  0  0  0  0  0  0  0  0  0  0  0
    4.7500    1.7275   -0.6615 H   0  0  0  0  0  0  0  0  0  0  0  0
    3.5836    0.1525   -1.9520 H   0  0  0  0  0  0  0  0  0  0  0  0
    0.6126    2.8653   -1.3391 Cl  0  0  0  0  0  0  0  0  0  0  0  0
    3.2918   -0.4764    0.7940 Cl  0  0  0  0  0  0  0  0  0  0  0  0
   -0.1180    0.1131    0.2839 P   0  0  0  0  0  0  0  0  0  0  0  0
   -3.9785    1.0208   -0.8916 C   0  0  0  0  0  0  0  0  0  0  0  0
   -0.3992   -0.8593    1.8199 C   0  0  0  0  0  0  0  0  0  0  0  0
   -1.9537    2.1807    0.6738 C   0  0  0  0  0  0  0  0  0  0  0  0
   -2.7358    0.3788   -0.7720 C   0  0  0  0  0  0  0  0  0  0  0  0
    0.1194   -1.0577   -1.1057 C   0  0  0  0  0  0  0  0  0  0  0  0
   -1.7233    0.9585    0.0143 C   0  0  0  0  0  0  0  0  0  0  0  0
    0.6459   -1.0651    2.7406 C   0  0  0  0  0  0  0  0  0  0  0  0
   -3.1975    2.8119    0.5549 C   0  0  0  0  0  0  0  0  0  0  0  0
    0.0368   -0.5584   -2.4249 C   0  0  0  0  0  0  0  0  0  0  0  0
   -1.6818   -1.3913    2.0739 C   0  0  0  0  0  0  0  0  0  0  0  0
    0.8132   -3.2232   -1.9499 C   0  0  0  0  0  0  0  0  0  0  0  0
    0.3343   -1.4074   -3.5000 C   0  0  0  0  0  0  0  0  0  0  0  0
    0.4061   -1.8136    3.9034 C   0  0  0  0  0  0  0  0  0  0  0  0
   -0.8640   -2.3531    4.1518 C   0  0  0  0  0  0  0  0  0  0  0  0
   -1.9067   -2.1421    3.2346 C   0  0  0  0  0  0  0  0  0  0  0  0
    0.5199   -2.3864   -0.8662 C   0  0  0  0  0  0  0  0  0  0  0  0
    0.7210   -2.7363   -3.2645 C   0  0  0  0  0  0  0  0  0  0  0  0
   -4.2108    2.2337   -0.2273 C   0  0  0  0  0  0  0  0  0  0  0  0
   -4.7673    0.5683   -1.5100 H   0  0  0  0  0  0  0  0  0  0  0  0
   -1.1492    2.6448    1.2610 H   0  0  0  0  0  0  0  0  0  0  0  0
   -2.5515   -0.5693   -1.2971 H   0  0  0  0  0  0  0  0  0  0  0  0
    1.6470   -0.6643    2.5234 H   0  0  0  0  0  0  0  0  0  0  0  0
   -3.3725    3.7699    1.0649 H   0  0  0  0  0  0  0  0  0  0  0  0
   -0.2386    0.4940   -2.5930 H   0  0  0  0  0  0  0  0  0  0  0  0
   -2.5054   -1.2122    1.3689 H   0  0  0  0  0  0  0  0  0  0  0  0
    1.1246   -4.2616   -1.7666 H   0  0  0  0  0  0  0  0  0  0  0  0
    0.2712   -1.0230   -4.5282 H   0  0  0  0  0  0  0  0  0  0  0  0
    1.2252   -1.9735    4.6192 H   0  0  0  0  0  0  0  0  0  0  0  0
   -1.0465   -2.9374    5.0656 H   0  0  0  0  0  0  0  0  0  0  0  0
   -2.9060   -2.5591    3.4266 H   0  0  0  0  0  0  0  0  0  0  0  0
    0.6113   -2.7536    0.1652 H   0  0  0  0  0  0  0  0  0  0  0  0
    0.9585   -3.3969   -4.1111 H   0  0  0  0  0  0  0  0  0  0  0  0
   -5.1841    2.7361   -0.3247 H   0  0  0  0  0  0  0  0  0  0  0  0
  2  4  1  0  0  0  0
  2  1  1  0  0  0  0
  2  3  1  0  0  0  0
  4  6  1  0  0  0  0
  4  5  1  0  0  0  0
  6  1  1  0  0  0  0
  6  8  1  0  0  0  0
  7  6  1  0  0  0  0
  9  4  1  0  0  0  0
 10  2  1  0  0  0  0
  1 11  1  0  0  0  0
  1 12  1  0  0  0  0
 14 17  1  0  0  0  0
 13 15  1  0  0  0  0
 16 19  1  0  0  0  0
 17 19  2  0  0  0  0
 13 18  1  0  0  0  0
 13 19  1  0  0  0  0
 15 20  1  0  0  0  0
 16 21  2  0  0  0  0
 18 22  2  0  0  0  0
 15 23  2  0  0  0  0
 24 29  2  0  0  0  0
 22 25  1  0  0  0  0
 20 26  2  0  0  0  0
 26 27  1  0  0  0  0
 23 28  1  0  0  0  0
 18 29  1  0  0  0  0
 24 30  1  0  0  0  0
 14 31  2  0  0  0  0
 14 32  1  0  0  0  0
 16 33  1  0  0  0  0
 17 34  1  0  0  0  0
 20 35  1  0  0  0  0
 21 36  1  0  0  0  0
 22 37  1  0  0  0  0
 23 38  1  0  0  0  0
 24 39  1  0  0  0  0
 25 40  1  0  0  0  0
 26 41  1  0  0  0  0
 27 42  1  0  0  0  0
 28 43  1  0  0  0  0
 29 44  1  0  0  0  0
 30 45  1  0  0  0  0
 31 46  1  0  0  0  0
 21 31  1  0  0  0  0
 25 30  2  0  0  0  0
 27 28  2  0  0  0  0
  1 13  1  0  0  0  0
M  END
>  <DFT-ENERGY>
-2167.92026376

$$$$
