
  CDK     02052419093D

 52 55  0  0  0  0  0  0  0  0999 V2000
    1.1718    2.2936   -2.9793 C   0  0  0  0  0  0  0  0  0  0  0  0
    0.2322    2.8720   -2.9319 H   0  0  0  0  0  0  0  0  0  0  0  0
    1.8384    2.7270   -3.7585 H   0  0  0  0  0  0  0  0  0  0  0  0
    1.7023    2.4071   -2.0120 H   0  0  0  0  0  0  0  0  0  0  0  0
    0.9291    0.8393   -3.3143 C   0  0  0  0  0  0  0  0  0  0  0  0
    1.8333    0.2092   -3.4077 H   0  0  0  0  0  0  0  0  0  0  0  0
   -0.2078    0.3773   -4.0335 C   0  0  0  0  0  0  0  0  0  0  0  0
   -1.0338    1.0958   -4.1762 H   0  0  0  0  0  0  0  0  0  0  0  0
   -0.0539   -0.7387   -5.0418 C   0  0  0  0  0  0  0  0  0  0  0  0
   -1.0190   -1.1921   -5.3365 H   0  0  0  0  0  0  0  0  0  0  0  0
    0.4089   -0.3136   -5.9587 H   0  0  0  0  0  0  0  0  0  0  0  0
    0.6195   -1.5271   -4.6521 H   0  0  0  0  0  0  0  0  0  0  0  0
   -1.4524   -0.9916   -2.6325 C   0  0  0  0  0  0  0  0  0  0  0  0
   -1.2146   -2.0134   -3.0008 H   0  0  0  0  0  0  0  0  0  0  0  0
   -2.4722   -0.5933   -2.8352 H   0  0  0  0  0  0  0  0  0  0  0  0
   -0.2301   -0.0005   -1.6987 Ru  0  0  0  0  0  0  0  0  0  0  0  0
    1.3430   -1.8211   -1.8338 Cl  0  0  0  0  0  0  0  0  0  0  0  0
   -1.7975    1.8214   -1.5781 Cl  0  0  0  0  0  0  0  0  0  0  0  0
   -0.2119   -0.1924    0.6105 P   0  0  0  0  0  0  0  0  0  0  0  0
   -2.4988    1.0047    3.8301 C   0  0  0  0  0  0  0  0  0  0  0  0
    1.0831    1.1017    0.7240 C   0  0  0  0  0  0  0  0  0  0  0  0
   -2.9235    0.3146    1.1364 C   0  0  0  0  0  0  0  0  0  0  0  0
   -1.4088    0.6698    3.0163 C   0  0  0  0  0  0  0  0  0  0  0  0
    0.4394   -1.6846    1.4563 C   0  0  0  0  0  0  0  0  0  0  0  0
   -1.6207    0.3278    1.6657 C   0  0  0  0  0  0  0  0  0  0  0  0
    2.4119    0.7605    0.3854 C   0  0  0  0  0  0  0  0  0  0  0  0
   -4.0109    0.6397    1.9609 C   0  0  0  0  0  0  0  0  0  0  0  0
   -0.0039   -2.9449    1.0148 C   0  0  0  0  0  0  0  0  0  0  0  0
    0.7288    2.4482    0.9504 C   0  0  0  0  0  0  0  0  0  0  0  0
    1.7204   -2.7520    3.2256 C   0  0  0  0  0  0  0  0  0  0  0  0
    0.4047   -4.1023    1.6900 C   0  0  0  0  0  0  0  0  0  0  0  0
    3.3851    1.7671    0.3090 C   0  0  0  0  0  0  0  0  0  0  0  0
    3.0370    3.1056    0.5519 C   0  0  0  0  0  0  0  0  0  0  0  0
    1.7103    3.4437    0.8697 C   0  0  0  0  0  0  0  0  0  0  0  0
    1.3073   -1.5885    2.5600 C   0  0  0  0  0  0  0  0  0  0  0  0
    1.2658   -4.0077    2.7948 C   0  0  0  0  0  0  0  0  0  0  0  0
   -3.8010    0.9862    3.3036 C   0  0  0  0  0  0  0  0  0  0  0  0
   -2.3310    1.2777    4.8820 H   0  0  0  0  0  0  0  0  0  0  0  0
   -3.0728    0.0809    0.0741 H   0  0  0  0  0  0  0  0  0  0  0  0
   -0.3914    0.6763    3.4328 H   0  0  0  0  0  0  0  0  0  0  0  0
    2.6636   -0.2851    0.1554 H   0  0  0  0  0  0  0  0  0  0  0  0
   -5.0285    0.6320    1.5446 H   0  0  0  0  0  0  0  0  0  0  0  0
   -0.6487   -3.0117    0.1276 H   0  0  0  0  0  0  0  0  0  0  0  0
   -0.3169    2.7089    1.1631 H   0  0  0  0  0  0  0  0  0  0  0  0
    2.4036   -2.6757    4.0840 H   0  0  0  0  0  0  0  0  0  0  0  0
    0.0612   -5.0865    1.3404 H   0  0  0  0  0  0  0  0  0  0  0  0
    4.4194    1.5028    0.0456 H   0  0  0  0  0  0  0  0  0  0  0  0
    3.8021    3.8928    0.4843 H   0  0  0  0  0  0  0  0  0  0  0  0
    1.4351    4.4937    1.0446 H   0  0  0  0  0  0  0  0  0  0  0  0
    1.6758   -0.6062    2.8896 H   0  0  0  0  0  0  0  0  0  0  0  0
    1.5921   -4.9187    3.3172 H   0  0  0  0  0  0  0  0  0  0  0  0
   -4.6556    1.2461    3.9452 H   0  0  0  0  0  0  0  0  0  0  0  0
  1  2  1  0  0  0  0
  1  5  1  0  0  0  0
  3  1  1  0  0  0  0
  4  1  1  0  0  0  0
  5  6  1  0  0  0  0
  5 16  1  0  0  0  0
  5  7  1  0  0  0  0
  7  9  1  0  0  0  0
  7  8  1  0  0  0  0
  9 10  1  0  0  0  0
 11  9  1  0  0  0  0
 12  9  1  0  0  0  0
 13 14  1  0  0  0  0
 13 15  1  0  0  0  0
 13  7  1  0  0  0  0
 16 13  1  0  0  0  0
 16 17  1  0  0  0  0
 16 18  1  0  0  0  0
 20 23  1  0  0  0  0
 19 21  1  0  0  0  0
 22 25  1  0  0  0  0
 23 25  2  0  0  0  0
 19 24  1  0  0  0  0
 19 25  1  0  0  0  0
 21 26  1  0  0  0  0
 22 27  2  0  0  0  0
 24 28  2  0  0  0  0
 21 29  2  0  0  0  0
 30 35  2  0  0  0  0
 28 31  1  0  0  0  0
 26 32  2  0  0  0  0
 32 33  1  0  0  0  0
 29 34  1  0  0  0  0
 24 35  1  0  0  0  0
 30 36  1  0  0  0  0
 20 37  2  0  0  0  0
 20 38  1  0  0  0  0
 22 39  1  0  0  0  0
 23 40  1  0  0  0  0
 26 41  1  0  0  0  0
 27 42  1  0  0  0  0
 28 43  1  0  0  0  0
 29 44  1  0  0  0  0
 30 45  1  0  0  0  0
 31 46  1  0  0  0  0
 32 47  1  0  0  0  0
 33 48  1  0  0  0  0
 34 49  1  0  0  0  0
 35 50  1  0  0  0  0
 36 51  1  0  0  0  0
 37 52  1  0  0  0  0
 27 37  1  0  0  0  0
 31 36  2  0  0  0  0
 33 34  2  0  0  0  0
 16 19  1  0  0  0  0
M  END
>  <DFT-ENERGY>
-2246.43500481

$$$$
