
  CDK     02062403493D

 46 50  0  0  0  0  0  0  0  0999 V2000
    2.0137   -0.8786   -3.6613 H   0  0  0  0  0  0  0  0  0  0  0  0
    2.5188    0.2160   -3.4149 C   0  0  0  0  0  0  0  0  0  0  0  0
    3.2836    0.2148   -4.2244 H   0  0  0  0  0  0  0  0  0  0  0  0
    1.3305    1.0923   -3.3953 C   0  0  0  0  0  0  0  0  0  0  0  0
    1.4053    2.0020   -2.7776 H   0  0  0  0  0  0  0  0  0  0  0  0
    0.7158    1.1924   -4.3028 H   0  0  0  0  0  0  0  0  0  0  0  0
    0.8746   -0.7340   -2.3093 Ru  0  0  0  0  0  0  0  0  0  0  0  0
    2.8154    0.1377   -1.9634 C   0  0  0  0  0  0  0  0  0  0  0  0
    2.7947    1.0871   -1.4044 H   0  0  0  0  0  0  0  0  0  0  0  0
    3.5507   -0.5928   -1.5949 H   0  0  0  0  0  0  0  0  0  0  0  0
    1.8681   -2.6404   -1.4381 Cl  0  0  0  0  0  0  0  0  0  0  0  0
   -1.1453   -0.4832   -3.4108 Cl  0  0  0  0  0  0  0  0  0  0  0  0
   -0.1615   -0.3497   -0.3192 P   0  0  0  0  0  0  0  0  0  0  0  0
   -2.5245    2.9475   -1.0800 C   0  0  0  0  0  0  0  0  0  0  0  0
    1.0043    0.3405    0.9387 C   0  0  0  0  0  0  0  0  0  0  0  0
   -2.6426    0.7009    0.6005 C   0  0  0  0  0  0  0  0  0  0  0  0
   -1.5117    1.9806   -1.1331 C   0  0  0  0  0  0  0  0  0  0  0  0
   -0.8812   -1.8372    0.4990 C   0  0  0  0  0  0  0  0  0  0  0  0
   -1.5622    0.8555   -0.2878 C   0  0  0  0  0  0  0  0  0  0  0  0
    2.1536   -0.4061    1.2746 C   0  0  0  0  0  0  0  0  0  0  0  0
   -3.6589    1.6674    0.6445 C   0  0  0  0  0  0  0  0  0  0  0  0
   -1.6188   -2.7244   -0.3100 C   0  0  0  0  0  0  0  0  0  0  0  0
    0.7881    1.5942    1.5406 C   0  0  0  0  0  0  0  0  0  0  0  0
   -1.3501   -3.2241    2.4410 C   0  0  0  0  0  0  0  0  0  0  0  0
   -2.2229   -3.8517    0.2610 C   0  0  0  0  0  0  0  0  0  0  0  0
    3.0653    0.0951    2.2120 C   0  0  0  0  0  0  0  0  0  0  0  0
    2.8501    1.3484    2.8101 C   0  0  0  0  0  0  0  0  0  0  0  0
    1.7136    2.0956    2.4705 C   0  0  0  0  0  0  0  0  0  0  0  0
   -0.7477   -2.0887    1.8764 C   0  0  0  0  0  0  0  0  0  0  0  0
   -2.0879   -4.1046    1.6361 C   0  0  0  0  0  0  0  0  0  0  0  0
   -3.6008    2.7922   -0.1918 C   0  0  0  0  0  0  0  0  0  0  0  0
   -2.4786    3.8219   -1.7453 H   0  0  0  0  0  0  0  0  0  0  0  0
   -2.6923   -0.1799    1.2559 H   0  0  0  0  0  0  0  0  0  0  0  0
   -0.6780    2.0853   -1.8397 H   0  0  0  0  0  0  0  0  0  0  0  0
    2.3270   -1.3785    0.7895 H   0  0  0  0  0  0  0  0  0  0  0  0
   -4.5034    1.5370    1.3369 H   0  0  0  0  0  0  0  0  0  0  0  0
   -1.7156   -2.5221   -1.3872 H   0  0  0  0  0  0  0  0  0  0  0  0
   -0.1060    2.1798    1.2862 H   0  0  0  0  0  0  0  0  0  0  0  0
   -1.2395   -3.4206    3.5175 H   0  0  0  0  0  0  0  0  0  0  0  0
   -2.7967   -4.5422   -0.3739 H   0  0  0  0  0  0  0  0  0  0  0  0
    3.9555   -0.4958    2.4729 H   0  0  0  0  0  0  0  0  0  0  0  0
    3.5720    1.7428    3.5401 H   0  0  0  0  0  0  0  0  0  0  0  0
    1.5386    3.0775    2.9342 H   0  0  0  0  0  0  0  0  0  0  0  0
   -0.1687   -1.3995    2.5072 H   0  0  0  0  0  0  0  0  0  0  0  0
   -2.5565   -4.9948    2.0806 H   0  0  0  0  0  0  0  0  0  0  0  0
   -4.3999    3.5470   -0.1570 H   0  0  0  0  0  0  0  0  0  0  0  0
  1  2  1  0  0  0  0
  1  7  1  0  0  0  0
  2  3  1  0  0  0  0
  2  4  1  0  0  0  0
  4  5  1  0  0  0  0
  4  6  1  0  0  0  0
  7  8  1  0  0  0  0
  4  7  1  0  0  0  0
  2  8  1  0  0  0  0
  8  9  1  0  0  0  0
  8 10  1  0  0  0  0
  7 11  1  0  0  0  0
  7 12  1  0  0  0  0
 14 17  1  0  0  0  0
 13 15  1  0  0  0  0
 16 19  1  0  0  0  0
 17 19  2  0  0  0  0
 13 18  1  0  0  0  0
 13 19  1  0  0  0  0
 15 20  1  0  0  0  0
 16 21  2  0  0  0  0
 18 22  2  0  0  0  0
 15 23  2  0  0  0  0
 24 29  2  0  0  0  0
 22 25  1  0  0  0  0
 20 26  2  0  0  0  0
 26 27  1  0  0  0  0
 23 28  1  0  0  0  0
 18 29  1  0  0  0  0
 24 30  1  0  0  0  0
 14 31  2  0  0  0  0
 14 32  1  0  0  0  0
 16 33  1  0  0  0  0
 17 34  1  0  0  0  0
 20 35  1  0  0  0  0
 21 36  1  0  0  0  0
 22 37  1  0  0  0  0
 23 38  1  0  0  0  0
 24 39  1  0  0  0  0
 25 40  1  0  0  0  0
 26 41  1  0  0  0  0
 27 42  1  0  0  0  0
 28 43  1  0  0  0  0
 29 44  1  0  0  0  0
 30 45  1  0  0  0  0
 31 46  1  0  0  0  0
 21 31  1  0  0  0  0
 25 30  2  0  0  0  0
 27 28  2  0  0  0  0
  7 13  1  0  0  0  0
M  END
>  <DFT-ENERGY>
-2167.89988575

$$$$
