CEBHEWMODN3_A2
  CDK     02052411043D

 60 64  0  0  0  0  0  0  0  0999 V2000
   -0.9424   -0.4819    0.1733 Ru  0  0  0  0  0  0  0  0  0  0  0  0
   -2.7168   -0.5914   -1.2159 O   0  0  0  0  0  0  0  0  0  0  0  0
   -2.0928   -1.4880    1.1774 C   0  0  0  0  0  0  0  0  0  0  0  0
   -1.8424   -1.7660    2.2001 H   0  0  0  0  0  0  0  0  0  0  0  0
   -2.9996    0.1678   -2.4417 C   0  0  0  0  0  0  0  0  0  0  0  0
   -3.3612   -0.5525   -3.2055 H   0  0  0  0  0  0  0  0  0  0  0  0
   -1.6068    0.6999   -2.7559 C   0  0  0  0  0  0  0  0  0  0  0  0
   -1.5744    1.2112   -3.7220 H   0  0  0  0  0  0  0  0  0  0  0  0
   -1.2693    1.4174   -1.9819 H   0  0  0  0  0  0  0  0  0  0  0  0
   -0.8708   -0.1279   -2.7783 H   0  0  0  0  0  0  0  0  0  0  0  0
   -4.0088    1.2535   -2.1133 C   0  0  0  0  0  0  0  0  0  0  0  0
   -4.0543    2.0193   -2.8941 H   0  0  0  0  0  0  0  0  0  0  0  0
   -5.0191    0.8595   -1.9612 H   0  0  0  0  0  0  0  0  0  0  0  0
   -3.7228    1.7625   -1.1719 H   0  0  0  0  0  0  0  0  0  0  0  0
   -3.6580   -1.4494   -0.7109 C   0  0  0  0  0  0  0  0  0  0  0  0
   -4.8034   -1.8695   -1.3639 C   0  0  0  0  0  0  0  0  0  0  0  0
   -5.0436   -1.5327   -2.3698 H   0  0  0  0  0  0  0  0  0  0  0  0
   -5.6517   -2.7545   -0.7064 C   0  0  0  0  0  0  0  0  0  0  0  0
   -6.5551   -3.0983   -1.2150 H   0  0  0  0  0  0  0  0  0  0  0  0
   -5.3731   -3.2099    0.5789 C   0  0  0  0  0  0  0  0  0  0  0  0
   -6.0572   -3.8975    1.0735 H   0  0  0  0  0  0  0  0  0  0  0  0
   -4.2278   -2.7782    1.2205 C   0  0  0  0  0  0  0  0  0  0  0  0
   -4.0131   -3.1202    2.2318 H   0  0  0  0  0  0  0  0  0  0  0  0
   -3.3443   -1.9066    0.5811 C   0  0  0  0  0  0  0  0  0  0  0  0
   -1.6684    1.6469    0.7278 Cl  0  0  0  0  0  0  0  0  0  0  0  0
   -0.0283   -2.1115   -1.1675 Cl  0  0  0  0  0  0  0  0  0  0  0  0
    0.7217   -0.4916    1.6168 P   0  0  0  0  0  0  0  0  0  0  0  0
    0.2699   -0.2902    5.7444 C   0  0  0  0  0  0  0  0  0  0  0  0
    2.1122    0.6071    0.9954 C   0  0  0  0  0  0  0  0  0  0  0  0
    0.0592    1.4489    3.5599 C   0  0  0  0  0  0  0  0  0  0  0  0
    0.5114   -0.7636    4.4491 C   0  0  0  0  0  0  0  0  0  0  0  0
    1.5997   -2.1253    1.9164 C   0  0  0  0  0  0  0  0  0  0  0  0
    0.4077    0.1104    3.3656 C   0  0  0  0  0  0  0  0  0  0  0  0
    2.2941    0.6621   -0.3884 C   0  0  0  0  0  0  0  0  0  0  0  0
   -0.1795    1.9177    4.8579 C   0  0  0  0  0  0  0  0  0  0  0  0
    0.9438   -3.3151    1.6011 C   0  0  0  0  0  0  0  0  0  0  0  0
    2.9365    1.3281    1.8590 C   0  0  0  0  0  0  0  0  0  0  0  0
    3.5430   -3.3626    2.6442 C   0  0  0  0  0  0  0  0  0  0  0  0
    1.5947   -4.5385    1.8142 C   0  0  0  0  0  0  0  0  0  0  0  0
    3.3283    1.4469   -0.9138 C   0  0  0  0  0  0  0  0  0  0  0  0
    4.1622    2.1720   -0.0563 C   0  0  0  0  0  0  0  0  0  0  0  0
    3.9655    2.1153    1.3273 C   0  0  0  0  0  0  0  0  0  0  0  0
    2.8977   -2.1395    2.4333 C   0  0  0  0  0  0  0  0  0  0  0  0
    2.8911   -4.5617    2.3340 C   0  0  0  0  0  0  0  0  0  0  0  0
   -0.0740    1.0498    5.9488 C   0  0  0  0  0  0  0  0  0  0  0  0
    0.3489   -0.9676    6.5927 H   0  0  0  0  0  0  0  0  0  0  0  0
   -0.0448    2.1492    2.7220 H   0  0  0  0  0  0  0  0  0  0  0  0
    0.7791   -1.8156    4.3211 H   0  0  0  0  0  0  0  0  0  0  0  0
    1.6513    0.0996   -1.0831 H   0  0  0  0  0  0  0  0  0  0  0  0
   -0.4567    2.9596    5.0129 H   0  0  0  0  0  0  0  0  0  0  0  0
   -0.0686   -3.3272    1.1746 H   0  0  0  0  0  0  0  0  0  0  0  0
    2.7981    1.3029    2.9424 H   0  0  0  0  0  0  0  0  0  0  0  0
    4.5554   -3.3815    3.0429 H   0  0  0  0  0  0  0  0  0  0  0  0
    1.0901   -5.4694    1.5595 H   0  0  0  0  0  0  0  0  0  0  0  0
    3.4820    1.4914   -1.9911 H   0  0  0  0  0  0  0  0  0  0  0  0
    4.9651    2.7834   -0.4673 H   0  0  0  0  0  0  0  0  0  0  0  0
    4.6121    2.6850    1.9926 H   0  0  0  0  0  0  0  0  0  0  0  0
    3.4317   -1.2180    2.6742 H   0  0  0  0  0  0  0  0  0  0  0  0
    3.3979   -5.5130    2.4929 H   0  0  0  0  0  0  0  0  0  0  0  0
   -0.2630    1.4162    6.9572 H   0  0  0  0  0  0  0  0  0  0  0  0
  1  2  1  0  0  0  0
  1  3  2  0  0  0  0
  3  4  1  0  0  0  0
  2  5  1  0  0  0  0
  5  6  1  0  0  0  0
  5  7  1  0  0  0  0
  7  8  1  0  0  0  0
  7  9  1  0  0  0  0
  7 10  1  0  0  0  0
  5 11  1  0  0  0  0
 11 12  1  0  0  0  0
 11 13  1  0  0  0  0
 11 14  1  0  0  0  0
  2 15  1  0  0  0  0
 15 24  1  0  0  0  0
 15 16  2  0  0  0  0
 16 17  1  0  0  0  0
 16 18  1  0  0  0  0
 18 19  1  0  0  0  0
 18 20  2  0  0  0  0
 20 21  1  0  0  0  0
 20 22  1  0  0  0  0
 22 24  2  0  0  0  0
 22 23  1  0  0  0  0
  3 24  1  0  0  0  0
  1 25  1  0  0  0  0
  1 26  1  0  0  0  0
 28 31  1  0  0  0  0
 27 29  1  0  0  0  0
 30 33  1  0  0  0  0
 31 33  2  0  0  0  0
 27 32  1  0  0  0  0
 27 33  1  0  0  0  0
 29 34  1  0  0  0  0
 30 35  2  0  0  0  0
 32 36  2  0  0  0  0
 29 37  2  0  0  0  0
 38 43  2  0  0  0  0
 36 39  1  0  0  0  0
 34 40  2  0  0  0  0
 40 41  1  0  0  0  0
 37 42  1  0  0  0  0
 32 43  1  0  0  0  0
 38 44  1  0  0  0  0
 28 45  2  0  0  0  0
 28 46  1  0  0  0  0
 30 47  1  0  0  0  0
 31 48  1  0  0  0  0
 34 49  1  0  0  0  0
 35 50  1  0  0  0  0
 36 51  1  0  0  0  0
 37 52  1  0  0  0  0
 38 53  1  0  0  0  0
 39 54  1  0  0  0  0
 40 55  1  0  0  0  0
 41 56  1  0  0  0  0
 42 57  1  0  0  0  0
 43 58  1  0  0  0  0
 44 59  1  0  0  0  0
 45 60  1  0  0  0  0
 35 45  1  0  0  0  0
 39 44  2  0  0  0  0
 41 42  2  0  0  0  0
  1 27  1  0  0  0  0
M  END
> <FrozenCore-PM6_ENERGY>
740.971

> <RMSD_CONF_CG-CS>
2.861585

> <RMSD_CONF_GO-CS>
0.000000

> <UID>


> <freeEnergyA>
-2513.17700384

> <freeEnergyF>
-2513.15424885

> <freeEnergyE>
-2513.17700384

> <freeEnergyC>
-2167.88651588

> <freeEnergyL>
-1035.34018051

> <freeEnergyX>
-2246.43500474

> <freeEnergyZ>
-2167.89988555

> <freeEnergyD>
-2167.9202637

> <G_Propene>
-117.738020895

> <G_Ethene>
-78.4716324751

> <G_HoveydaProd>
-502.204109499

> <G_SIMes>
-924.27249048

> <G_HG_RuCl2_SIMes>
-2402.13728523

> <DG_referenceProductionBarrier>
0.01468968

> <hartree_to_kcalmol>
627.49467516

> <DFT_IDENTIFIER>
1707200537221

> <DFT_MACHINE>
158.36.42.38

> <XTB_IDENTIFIER>
NREC

> <XTB_MACHINE>
NREC

> <DE_Synth>
17.5519171066639272

> <DESCRIPTOR_DEFINITION_1>
desc1=( echo "1 * ( e( $hartree_to_kcalmol * ( ( $freeEnergyZ - $freeEnergyD ) - ( $freeEnergyX + 2*$G_Ethene - $freeEnergyD - 2*$G_Propene ) - $DDG_reference_HGII ) / $kT ) ) " | bc -l )

> <DESCRIPTOR_DEFINITION_2>
desc2=$( echo "1 * ( $hartree_to_kcalmol * ( ( $freeEnergyZ - $freeEnergyD ) - ( $freeEnergyX + 2*$G_Ethene - $freeEnergyD - 2*$G_Propene ) ) )" | bc -l )

> <DESCRIPTOR_DEFINITION_3>
desc3=$( echo "1 * $hartree_to_kcalmol * ( $DG_referenceProductionBarrier - ( $freeEnergyX + 2*$G_Ethene - $freeEnergyD - 2*$G_Propene ) )" | bc -l )

> <WEIGHT_DEFINITION_1>
w1=$( echo "1 / ( 1 + e( $hartree_to_kcalmol * ( ( ( $freeEnergyX + 2*$G_Ethene - $freeEnergyD - 2*$G_Propene ) ) - ( $DG_referenceProductionBarrier + $magnitude4 ) ) / $kT ) )" | bc -l )

> <WEIGHT_DEFINITION_2>
w2=$( echo "1 / ( 1 + e( $hartree_to_kcalmol * ( ABS( $freeEnergyC + $G_HoveydaProd - $freeEnergyA - 2*${G_Ethene} - $DG_referencePrecursorStabilityHII ) - ( $DDG_referencePrecursorStability + $magnitude1 ) ) / $kT ) )" | bc -l )

> <WEIGHT_DEFINITION_3>
w3=$( echo "1 / ( 1 + e( $hartree_to_kcalmol * ( ( $freeEnergyE + $G_SIMes - $G_HG_RuCl2_SIMes - $freeEnergyL ) - ( $DG_referenceSynt  + $magnitude1 ) ) / $kT ) )" | bc -l )

> <WEIGHT_DEFINITION_4>
w4=$( echo "1 / ( 1 + e( $hartree_to_kcalmol * ( - ( $freeEnergyF - $freeEnergyA ) + $magnitude2 ) / $kT ) )" | bc -l )

> <FITNESS_DEFINITION>
fitness=$( echo "( $desc1 + $desc2 + $desc3 ) * $w1 * $w2 * $w3 * $w4" | bc -l )

> <DESCRIPTOR_1>
.00000000195148366894

> <DESCRIPTOR_2>
1.469812277859961032

> <DESCRIPTOR_3>
2.657832133474575000

> <WEIGHT_1>
.99999860300813478824

> <WEIGHT_2>
.00000015006623946950

> <WEIGHT_3>
.04284685768740453298

> <WEIGHT_4>
.99999998915403593748

> <FITNESS>
.00000002654016643661

$$$$
