
  CDK     02032409053D

 59 62  0  0  0  0  0  0  0  0999 V2000
    1.1992   -0.7102   -0.1276 Ru  0  0  0  0  0  0  0  0  0  0  0  0
    2.7359   -0.6860   -1.3377 C   0  0  0  0  0  0  0  0  0  0  0  0
    2.5349   -1.0472   -2.3621 H   0  0  0  0  0  0  0  0  0  0  0  0
    3.1201   -1.8460   -0.3311 C   0  0  0  0  0  0  0  0  0  0  0  0
    3.2053   -2.7663   -0.9369 H   0  0  0  0  0  0  0  0  0  0  0  0
    2.0877   -2.1696    0.8249 C   0  0  0  0  0  0  0  0  0  0  0  0
    2.4666   -1.9143    1.8306 H   0  0  0  0  0  0  0  0  0  0  0  0
    1.6115   -3.1606    0.7181 H   0  0  0  0  0  0  0  0  0  0  0  0
    4.0535   -1.5273    0.1674 H   0  0  0  0  0  0  0  0  0  0  0  0
    3.3900    0.1999   -1.2505 H   0  0  0  0  0  0  0  0  0  0  0  0
    0.1941   -2.3468   -1.5543 Cl  0  0  0  0  0  0  0  0  0  0  0  0
    2.3731    0.8257    1.2823 Cl  0  0  0  0  0  0  0  0  0  0  0  0
   -0.9796    1.3092   -0.7568 N   0  0  0  0  0  0  0  0  0  0  0  0
   -1.4833    0.1480    1.0124 N   0  0  0  0  0  0  0  0  0  0  0  0
   -0.5225    0.3087    0.0541 C   0  0  0  0  0  0  0  0  0  0  0  0
   -2.2202    1.7736   -0.3090 C   0  0  0  0  0  0  0  0  0  0  0  0
   -2.7476    2.5760   -0.8284 H   0  0  0  0  0  0  0  0  0  0  0  0
   -2.5374    1.0428    0.8032 C   0  0  0  0  0  0  0  0  0  0  0  0
   -3.4033    1.0657    1.4676 H   0  0  0  0  0  0  0  0  0  0  0  0
   -0.2539    1.7906   -1.9074 C   0  0  0  0  0  0  0  0  0  0  0  0
    0.6655    2.8475   -1.7322 C   0  0  0  0  0  0  0  0  0  0  0  0
    1.3964    3.2588   -2.8607 C   0  0  0  0  0  0  0  0  0  0  0  0
    2.1225    4.0784   -2.7464 H   0  0  0  0  0  0  0  0  0  0  0  0
    1.2183    2.6623   -4.1213 C   0  0  0  0  0  0  0  0  0  0  0  0
    0.2512    1.6500   -4.2554 C   0  0  0  0  0  0  0  0  0  0  0  0
    0.0731    1.1974   -5.2431 H   0  0  0  0  0  0  0  0  0  0  0  0
   -0.5084    1.1969   -3.1632 C   0  0  0  0  0  0  0  0  0  0  0  0
    0.8558    3.5092   -0.3957 C   0  0  0  0  0  0  0  0  0  0  0  0
   -0.1140    3.7774    0.0706 H   0  0  0  0  0  0  0  0  0  0  0  0
    1.4589    4.4304   -0.4982 H   0  0  0  0  0  0  0  0  0  0  0  0
    1.3785    2.8243    0.3076 H   0  0  0  0  0  0  0  0  0  0  0  0
    2.0499    3.0929   -5.3033 C   0  0  0  0  0  0  0  0  0  0  0  0
    2.9550    2.4557   -5.3998 H   0  0  0  0  0  0  0  0  0  0  0  0
    2.3961    4.1397   -5.1998 H   0  0  0  0  0  0  0  0  0  0  0  0
    1.4867    3.0037   -6.2529 H   0  0  0  0  0  0  0  0  0  0  0  0
   -1.5475    0.1228   -3.3263 C   0  0  0  0  0  0  0  0  0  0  0  0
   -1.7285   -0.0871   -4.3969 H   0  0  0  0  0  0  0  0  0  0  0  0
   -2.5116    0.4093   -2.8593 H   0  0  0  0  0  0  0  0  0  0  0  0
   -1.2106   -0.8170   -2.8367 H   0  0  0  0  0  0  0  0  0  0  0  0
   -1.3872   -0.8200    2.0783 C   0  0  0  0  0  0  0  0  0  0  0  0
   -1.9050   -2.1155    1.8628 C   0  0  0  0  0  0  0  0  0  0  0  0
   -1.7518   -3.0509    2.9014 C   0  0  0  0  0  0  0  0  0  0  0  0
   -2.1440   -4.0689    2.7538 H   0  0  0  0  0  0  0  0  0  0  0  0
   -1.1255   -2.7196    4.1157 C   0  0  0  0  0  0  0  0  0  0  0  0
   -0.6741   -1.4005    4.3014 C   0  0  0  0  0  0  0  0  0  0  0  0
   -0.2138   -1.1146    5.2598 H   0  0  0  0  0  0  0  0  0  0  0  0
   -0.7987   -0.4233    3.2993 C   0  0  0  0  0  0  0  0  0  0  0  0
   -2.5939   -2.4821    0.5778 C   0  0  0  0  0  0  0  0  0  0  0  0
   -3.1009   -3.4604    0.6715 H   0  0  0  0  0  0  0  0  0  0  0  0
   -1.8589   -2.5462   -0.2544 H   0  0  0  0  0  0  0  0  0  0  0  0
   -3.3494   -1.7242    0.2871 H   0  0  0  0  0  0  0  0  0  0  0  0
   -0.9350   -3.7561    5.1943 C   0  0  0  0  0  0  0  0  0  0  0  0
   -0.9963   -3.3085    6.2057 H   0  0  0  0  0  0  0  0  0  0  0  0
    0.0651   -4.2327    5.1091 H   0  0  0  0  0  0  0  0  0  0  0  0
   -1.6898   -4.5631    5.1236 H   0  0  0  0  0  0  0  0  0  0  0  0
   -0.3227    0.9858    3.5181 C   0  0  0  0  0  0  0  0  0  0  0  0
   -0.0614    1.1501    4.5800 H   0  0  0  0  0  0  0  0  0  0  0  0
   -1.0932    1.7292    3.2294 H   0  0  0  0  0  0  0  0  0  0  0  0
    0.5787    1.1885    2.8993 H   0  0  0  0  0  0  0  0  0  0  0  0
  2  4  1  0  0  0  0
  2  1  1  0  0  0  0
  2  3  1  0  0  0  0
  4  6  1  0  0  0  0
  4  5  1  0  0  0  0
  6  1  1  0  0  0  0
  6  8  1  0  0  0  0
  7  6  1  0  0  0  0
  9  4  1  0  0  0  0
 10  2  1  0  0  0  0
  1 11  1  0  0  0  0
  1 12  1  0  0  0  0
 13 15  1  0  0  0  0
 14 15  1  0  0  0  0
 13 16  1  0  0  0  0
 16 17  1  0  0  0  0
 14 18  1  0  0  0  0
 18 19  1  0  0  0  0
 13 20  1  0  0  0  0
 20 21  2  0  0  0  0
 21 22  1  0  0  0  0
 22 23  1  0  0  0  0
 22 24  2  0  0  0  0
 24 25  1  0  0  0  0
 25 26  1  0  0  0  0
 20 27  1  0  0  0  0
 21 28  1  0  0  0  0
 28 29  1  0  0  0  0
 28 30  1  0  0  0  0
 28 31  1  0  0  0  0
 24 32  1  0  0  0  0
 32 33  1  0  0  0  0
 32 34  1  0  0  0  0
 32 35  1  0  0  0  0
 27 36  1  0  0  0  0
 36 37  1  0  0  0  0
 36 38  1  0  0  0  0
 36 39  1  0  0  0  0
 14 40  1  0  0  0  0
 40 41  1  0  0  0  0
 41 42  2  0  0  0  0
 42 43  1  0  0  0  0
 42 44  1  0  0  0  0
 44 45  2  0  0  0  0
 45 46  1  0  0  0  0
 40 47  2  0  0  0  0
 41 48  1  0  0  0  0
 48 49  1  0  0  0  0
 48 50  1  0  0  0  0
 48 51  1  0  0  0  0
 44 52  1  0  0  0  0
 52 53  1  0  0  0  0
 52 54  1  0  0  0  0
 52 55  1  0  0  0  0
 47 56  1  0  0  0  0
 56 57  1  0  0  0  0
 56 58  1  0  0  0  0
 56 59  1  0  0  0  0
 16 18  2  0  0  0  0
 25 27  2  0  0  0  0
 45 47  1  0  0  0  0
  1 15  1  0  0  0  0
M  END
>  <DFT-ENERGY>
-2055.7127478

$$$$
