
  CDK     08132404403D

 50 55  0  0  0  0  0  0  0  0999 V2000
    1.4194    1.2971   -2.8443 H   0  0  0  0  0  0  0  0  0  0  0  0
    2.6422    1.4319   -2.8228 C   0  0  0  0  0  0  0  0  0  0  0  0
    2.6442    1.4398   -3.9348 H   0  0  0  0  0  0  0  0  0  0  0  0
    2.7823    2.6602   -1.9853 C   0  0  0  0  0  0  0  0  0  0  0  0
    3.7030    2.7705   -1.3889 H   0  0  0  0  0  0  0  0  0  0  0  0
    2.3880    3.5949   -2.4199 H   0  0  0  0  0  0  0  0  0  0  0  0
    1.4107    1.4082   -1.0740 Ru  0  0  0  0  0  0  0  0  0  0  0  0
    2.9395    0.2339   -2.0252 C   0  0  0  0  0  0  0  0  0  0  0  0
    3.8380    0.2254   -1.3959 H   0  0  0  0  0  0  0  0  0  0  0  0
    2.6139   -0.7435   -2.4205 H   0  0  0  0  0  0  0  0  0  0  0  0
    2.9624    1.0604    0.7813 Cl  0  0  0  0  0  0  0  0  0  0  0  0
   -0.4700    2.4757   -2.1243 Cl  0  0  0  0  0  0  0  0  0  0  0  0
    0.4219    1.8388    0.6658 C   0  0  0  0  0  0  0  0  0  0  0  0
    0.2351    2.8571    1.5427 N   0  0  0  0  0  0  0  0  0  0  0  0
   -0.4704    2.4797    2.6656 N   0  0  0  0  0  0  0  0  0  0  0  0
   -0.7524    1.1980    2.4774 C   0  0  0  0  0  0  0  0  0  0  0  0
   -0.2445    0.7904    1.2472 N   0  0  0  0  0  0  0  0  0  0  0  0
    0.7853    4.1713    1.4659 C   0  0  0  0  0  0  0  0  0  0  0  0
    1.9162    6.7186    1.3379 C   0  0  0  0  0  0  0  0  0  0  0  0
    1.1410    4.8261    2.6555 C   0  0  0  0  0  0  0  0  0  0  0  0
    0.9695    4.7751    0.2131 C   0  0  0  0  0  0  0  0  0  0  0  0
    1.5458    6.0514    0.1604 C   0  0  0  0  0  0  0  0  0  0  0  0
    1.7050    6.1056    2.5833 C   0  0  0  0  0  0  0  0  0  0  0  0
    1.6922    6.5323   -0.8172 H   0  0  0  0  0  0  0  0  0  0  0  0
    1.9899    6.6232    3.5102 H   0  0  0  0  0  0  0  0  0  0  0  0
    0.6411    4.2543   -0.6956 H   0  0  0  0  0  0  0  0  0  0  0  0
    0.9754    4.3234    3.6162 H   0  0  0  0  0  0  0  0  0  0  0  0
    2.3646    7.7211    1.2868 H   0  0  0  0  0  0  0  0  0  0  0  0
   -0.0892   -0.5021    0.6379 C   0  0  0  0  0  0  0  0  0  0  0  0
    0.4195   -2.9075   -0.6739 C   0  0  0  0  0  0  0  0  0  0  0  0
   -0.5352   -0.6667   -0.6871 C   0  0  0  0  0  0  0  0  0  0  0  0
    0.6089   -1.5147    1.3143 C   0  0  0  0  0  0  0  0  0  0  0  0
    0.8502   -2.7232    0.6532 C   0  0  0  0  0  0  0  0  0  0  0  0
   -0.2686   -1.8852   -1.3389 C   0  0  0  0  0  0  0  0  0  0  0  0
   -1.1123    0.1302   -1.1771 H   0  0  0  0  0  0  0  0  0  0  0  0
    0.9805   -1.3338    2.3306 H   0  0  0  0  0  0  0  0  0  0  0  0
    1.4028   -3.5209    1.1691 H   0  0  0  0  0  0  0  0  0  0  0  0
   -0.6131   -2.0263   -2.3731 H   0  0  0  0  0  0  0  0  0  0  0  0
    0.6255   -3.8569   -1.1885 H   0  0  0  0  0  0  0  0  0  0  0  0
   -1.5130    0.3778    3.4222 C   0  0  0  0  0  0  0  0  0  0  0  0
   -2.9837   -1.1282    5.2925 C   0  0  0  0  0  0  0  0  0  0  0  0
   -1.5461    0.7634    4.7808 C   0  0  0  0  0  0  0  0  0  0  0  0
   -2.2340   -0.7629    3.0072 C   0  0  0  0  0  0  0  0  0  0  0  0
   -2.9620   -1.5094    3.9424 C   0  0  0  0  0  0  0  0  0  0  0  0
   -2.2774    0.0132    5.7068 C   0  0  0  0  0  0  0  0  0  0  0  0
   -0.9875    1.6565    5.0912 H   0  0  0  0  0  0  0  0  0  0  0  0
   -2.2395   -1.0594    1.9502 H   0  0  0  0  0  0  0  0  0  0  0  0
   -3.5228   -2.3944    3.6095 H   0  0  0  0  0  0  0  0  0  0  0  0
   -2.2936    0.3189    6.7627 H   0  0  0  0  0  0  0  0  0  0  0  0
   -3.5545   -1.7192    6.0230 H   0  0  0  0  0  0  0  0  0  0  0  0
  1  2  1  0  0  0  0
  1  7  1  0  0  0  0
  2  3  1  0  0  0  0
  2  4  1  0  0  0  0
  4  5  1  0  0  0  0
  4  6  1  0  0  0  0
  7  8  1  0  0  0  0
  4  7  1  0  0  0  0
  2  8  1  0  0  0  0
  8  9  1  0  0  0  0
  8 10  1  0  0  0  0
  7 11  1  0  0  0  0
  7 12  1  0  0  0  0
 13 14  1  0  0  0  0
 13 17  1  0  0  0  0
 14 15  1  0  0  0  0
 14 18  1  0  0  0  0
 16 17  1  0  0  0  0
 15 16  2  0  0  0  0
 16 40  1  0  0  0  0
 17 29  1  0  0  0  0
 18 21  2  0  0  0  0
 18 20  1  0  0  0  0
 19 22  2  0  0  0  0
 19 23  1  0  0  0  0
 19 28  1  0  0  0  0
 20 23  2  0  0  0  0
 20 27  1  0  0  0  0
 21 22  1  0  0  0  0
 21 26  1  0  0  0  0
 22 24  1  0  0  0  0
 23 25  1  0  0  0  0
 29 32  2  0  0  0  0
 29 31  1  0  0  0  0
 30 33  2  0  0  0  0
 30 34  1  0  0  0  0
 30 39  1  0  0  0  0
 31 34  2  0  0  0  0
 31 35  1  0  0  0  0
 32 33  1  0  0  0  0
 32 36  1  0  0  0  0
 33 37  1  0  0  0  0
 34 38  1  0  0  0  0
 40 43  2  0  0  0  0
 40 42  1  0  0  0  0
 41 44  2  0  0  0  0
 41 45  1  0  0  0  0
 41 50  1  0  0  0  0
 42 45  2  0  0  0  0
 42 46  1  0  0  0  0
 43 44  1  0  0  0  0
 43 47  1  0  0  0  0
 44 48  1  0  0  0  0
 45 49  1  0  0  0  0
  7 13  1  0  0  0  0
M  END
>  <DFT-ENERGY>
-2066.90692698

$$$$
