
  CDK     08132405523D

 50 54  0  0  0  0  0  0  0  0999 V2000
   -1.8501    1.0223   -0.6793 Ru  0  0  0  0  0  0  0  0  0  0  0  0
   -3.5152    1.0750   -1.7120 C   0  0  0  0  0  0  0  0  0  0  0  0
   -3.4233    1.4620   -2.7428 H   0  0  0  0  0  0  0  0  0  0  0  0
   -3.7494    2.2167   -0.6456 C   0  0  0  0  0  0  0  0  0  0  0  0
   -3.8553    3.1633   -1.2056 H   0  0  0  0  0  0  0  0  0  0  0  0
   -2.6082    2.4459    0.4270 C   0  0  0  0  0  0  0  0  0  0  0  0
   -2.9044    2.1490    1.4487 H   0  0  0  0  0  0  0  0  0  0  0  0
   -2.1147    3.4290    0.3268 H   0  0  0  0  0  0  0  0  0  0  0  0
   -4.6449    1.9160   -0.0721 H   0  0  0  0  0  0  0  0  0  0  0  0
   -4.1806    0.2044   -1.5740 H   0  0  0  0  0  0  0  0  0  0  0  0
   -0.8530    2.6385   -2.1381 Cl  0  0  0  0  0  0  0  0  0  0  0  0
   -2.8388   -0.5870    0.7878 Cl  0  0  0  0  0  0  0  0  0  0  0  0
   -0.2217   -0.1099   -0.5798 C   0  0  0  0  0  0  0  0  0  0  0  0
    0.1615   -1.2287   -1.2509 N   0  0  0  0  0  0  0  0  0  0  0  0
    1.2595   -1.8456   -0.6952 N   0  0  0  0  0  0  0  0  0  0  0  0
    1.5843   -1.0850    0.3385 C   0  0  0  0  0  0  0  0  0  0  0  0
    0.7047   -0.0010    0.4242 N   0  0  0  0  0  0  0  0  0  0  0  0
   -0.4934   -1.7812   -2.3874 C   0  0  0  0  0  0  0  0  0  0  0  0
   -1.8515   -2.8536   -4.5746 C   0  0  0  0  0  0  0  0  0  0  0  0
   -0.4919   -3.1708   -2.5796 C   0  0  0  0  0  0  0  0  0  0  0  0
   -1.1399   -0.9156   -3.2842 C   0  0  0  0  0  0  0  0  0  0  0  0
   -1.8311   -1.4651   -4.3724 C   0  0  0  0  0  0  0  0  0  0  0  0
   -1.1728   -3.7003   -3.6829 C   0  0  0  0  0  0  0  0  0  0  0  0
   -2.3410   -0.7937   -5.0777 H   0  0  0  0  0  0  0  0  0  0  0  0
   -1.1819   -4.7882   -3.8398 H   0  0  0  0  0  0  0  0  0  0  0  0
   -1.0686    0.1759   -3.1492 H   0  0  0  0  0  0  0  0  0  0  0  0
    0.0343   -3.8130   -1.8625 H   0  0  0  0  0  0  0  0  0  0  0  0
   -2.3905   -3.2779   -5.4335 H   0  0  0  0  0  0  0  0  0  0  0  0
    0.5742    1.0075    1.4408 C   0  0  0  0  0  0  0  0  0  0  0  0
    0.2256    2.9796    3.3723 C   0  0  0  0  0  0  0  0  0  0  0  0
    0.7578    2.3517    1.0828 C   0  0  0  0  0  0  0  0  0  0  0  0
    0.2003    0.6316    2.7388 C   0  0  0  0  0  0  0  0  0  0  0  0
    0.0350    1.6287    3.7081 C   0  0  0  0  0  0  0  0  0  0  0  0
    0.5790    3.3393    2.0627 C   0  0  0  0  0  0  0  0  0  0  0  0
    0.9999    2.6119    0.0429 H   0  0  0  0  0  0  0  0  0  0  0  0
    0.0208   -0.4266    2.9675 H   0  0  0  0  0  0  0  0  0  0  0  0
   -0.2621    1.3488    4.7284 H   0  0  0  0  0  0  0  0  0  0  0  0
    0.7117    4.3966    1.7936 H   0  0  0  0  0  0  0  0  0  0  0  0
    0.0869    3.7579    4.1364 H   0  0  0  0  0  0  0  0  0  0  0  0
    2.7136   -1.3605    1.2300 C   0  0  0  0  0  0  0  0  0  0  0  0
    4.9073   -1.9818    2.8838 C   0  0  0  0  0  0  0  0  0  0  0  0
    3.1660   -2.6943    1.3458 C   0  0  0  0  0  0  0  0  0  0  0  0
    3.3785   -0.3390    1.9428 C   0  0  0  0  0  0  0  0  0  0  0  0
    4.4678   -0.6549    2.7649 C   0  0  0  0  0  0  0  0  0  0  0  0
    4.2555   -2.9992    2.1673 C   0  0  0  0  0  0  0  0  0  0  0  0
    2.6457   -3.4805    0.7828 H   0  0  0  0  0  0  0  0  0  0  0  0
    3.0567    0.7054    1.8444 H   0  0  0  0  0  0  0  0  0  0  0  0
    4.9808    0.1478    3.3133 H   0  0  0  0  0  0  0  0  0  0  0  0
    4.5965   -4.0407    2.2536 H   0  0  0  0  0  0  0  0  0  0  0  0
    5.7607   -2.2239    3.5332 H   0  0  0  0  0  0  0  0  0  0  0  0
  2  4  1  0  0  0  0
  2  1  1  0  0  0  0
  2  3  1  0  0  0  0
  4  6  1  0  0  0  0
  4  5  1  0  0  0  0
  6  1  1  0  0  0  0
  6  8  1  0  0  0  0
  7  6  1  0  0  0  0
  9  4  1  0  0  0  0
 10  2  1  0  0  0  0
  1 11  1  0  0  0  0
  1 12  1  0  0  0  0
 13 14  1  0  0  0  0
 13 17  1  0  0  0  0
 14 15  1  0  0  0  0
 14 18  1  0  0  0  0
 16 17  1  0  0  0  0
 15 16  2  0  0  0  0
 16 40  1  0  0  0  0
 17 29  1  0  0  0  0
 18 21  2  0  0  0  0
 18 20  1  0  0  0  0
 19 22  2  0  0  0  0
 19 23  1  0  0  0  0
 19 28  1  0  0  0  0
 20 23  2  0  0  0  0
 20 27  1  0  0  0  0
 21 22  1  0  0  0  0
 21 26  1  0  0  0  0
 22 24  1  0  0  0  0
 23 25  1  0  0  0  0
 29 32  2  0  0  0  0
 29 31  1  0  0  0  0
 30 33  2  0  0  0  0
 30 34  1  0  0  0  0
 30 39  1  0  0  0  0
 31 34  2  0  0  0  0
 31 35  1  0  0  0  0
 32 33  1  0  0  0  0
 32 36  1  0  0  0  0
 33 37  1  0  0  0  0
 34 38  1  0  0  0  0
 40 43  2  0  0  0  0
 40 42  1  0  0  0  0
 41 44  2  0  0  0  0
 41 45  1  0  0  0  0
 41 50  1  0  0  0  0
 42 45  2  0  0  0  0
 42 46  1  0  0  0  0
 43 44  1  0  0  0  0
 43 47  1  0  0  0  0
 44 48  1  0  0  0  0
 45 49  1  0  0  0  0
  1 13  1  0  0  0  0
M  END
>  <DFT-ENERGY>
-2066.94244239

$$$$
