triphenylTriazole-3_A2
  CDK     08122411433D

 64 69  0  0  0  0  0  0  0  0999 V2000
   -1.0193    0.4959   -0.0598 Ru  0  0  0  0  0  0  0  0  0  0  0  0
   -2.7971    1.8851   -0.0598 O   0  0  0  0  0  0  0  0  0  0  0  0
   -2.2295   -0.5082   -0.9931 C   0  0  0  0  0  0  0  0  0  0  0  0
   -1.9967   -1.5309   -1.2860 H   0  0  0  0  0  0  0  0  0  0  0  0
   -3.0326    3.1109    0.7154 C   0  0  0  0  0  0  0  0  0  0  0  0
   -3.4417    3.8687    0.0135 H   0  0  0  0  0  0  0  0  0  0  0  0
   -1.6145    3.4323    1.1606 C   0  0  0  0  0  0  0  0  0  0  0  0
   -1.5449    4.4210    1.6225 H   0  0  0  0  0  0  0  0  0  0  0  0
   -1.2473    2.6845    1.8896 H   0  0  0  0  0  0  0  0  0  0  0  0
   -0.9176    3.4115    0.2948 H   0  0  0  0  0  0  0  0  0  0  0  0
   -3.9733    2.7766    1.8588 C   0  0  0  0  0  0  0  0  0  0  0  0
   -5.0066    2.6275    1.5283 H   0  0  0  0  0  0  0  0  0  0  0  0
   -3.6572    1.8330    2.3464 H   0  0  0  0  0  0  0  0  0  0  0  0
   -3.9708    3.5537    2.6302 H   0  0  0  0  0  0  0  0  0  0  0  0
   -3.7893    1.3801   -0.8582 C   0  0  0  0  0  0  0  0  0  0  0  0
   -4.9584    2.0331   -1.2069 C   0  0  0  0  0  0  0  0  0  0  0  0
   -5.1774    3.0398   -0.8575 H   0  0  0  0  0  0  0  0  0  0  0  0
   -5.8596    1.3756   -2.0380 C   0  0  0  0  0  0  0  0  0  0  0  0
   -6.7821    1.8849   -2.3260 H   0  0  0  0  0  0  0  0  0  0  0  0
   -5.6096    0.0903   -2.5096 C   0  0  0  0  0  0  0  0  0  0  0  0
   -6.3342   -0.4037   -3.1552 H   0  0  0  0  0  0  0  0  0  0  0  0
   -4.4399   -0.5513   -2.1493 C   0  0  0  0  0  0  0  0  0  0  0  0
   -4.2476   -1.5633   -2.5024 H   0  0  0  0  0  0  0  0  0  0  0  0
   -3.5044    0.0881   -1.3339 C   0  0  0  0  0  0  0  0  0  0  0  0
   -1.6195   -0.0649    2.1342 Cl  0  0  0  0  0  0  0  0  0  0  0  0
   -0.1924    1.8613   -1.7735 Cl  0  0  0  0  0  0  0  0  0  0  0  0
    0.5273   -0.6647   -0.1501 C   0  0  0  0  0  0  0  0  0  0  0  0
    1.8429   -0.1306   -0.0356 N   0  0  0  0  0  0  0  0  0  0  0  0
    2.8387   -1.0745   -0.2448 N   0  0  0  0  0  0  0  0  0  0  0  0
    2.2207   -2.2403   -0.4549 C   0  0  0  0  0  0  0  0  0  0  0  0
    0.7869   -2.0416   -0.3800 N   0  0  0  0  0  0  0  0  0  0  0  0
    2.2223    1.2321    0.2736 C   0  0  0  0  0  0  0  0  0  0  0  0
    2.9400    3.8421    0.9151 C   0  0  0  0  0  0  0  0  0  0  0  0
    3.2885    1.8399   -0.4114 C   0  0  0  0  0  0  0  0  0  0  0  0
    1.5189    1.9066    1.2874 C   0  0  0  0  0  0  0  0  0  0  0  0
    1.8872    3.2209    1.5937 C   0  0  0  0  0  0  0  0  0  0  0  0
    3.6383    3.1504   -0.0818 C   0  0  0  0  0  0  0  0  0  0  0  0
    1.3508    3.7584    2.3756 H   0  0  0  0  0  0  0  0  0  0  0  0
    4.4587    3.6371   -0.6094 H   0  0  0  0  0  0  0  0  0  0  0  0
    0.7246    1.4107    1.8628 H   0  0  0  0  0  0  0  0  0  0  0  0
    3.8263    1.2948   -1.1881 H   0  0  0  0  0  0  0  0  0  0  0  0
    3.2182    4.8651    1.1621 H   0  0  0  0  0  0  0  0  0  0  0  0
   -0.1753   -3.1102   -0.5057 C   0  0  0  0  0  0  0  0  0  0  0  0
   -1.9903   -5.2151   -0.6895 C   0  0  0  0  0  0  0  0  0  0  0  0
   -1.1739   -3.2484    0.4738 C   0  0  0  0  0  0  0  0  0  0  0  0
   -0.0847   -4.0076   -1.5831 C   0  0  0  0  0  0  0  0  0  0  0  0
   -0.9982   -5.0613   -1.6633 C   0  0  0  0  0  0  0  0  0  0  0  0
   -2.0787   -4.3069    0.3715 C   0  0  0  0  0  0  0  0  0  0  0  0
   -1.2501   -2.5239    1.2962 H   0  0  0  0  0  0  0  0  0  0  0  0
    0.6877   -3.8875   -2.3428 H   0  0  0  0  0  0  0  0  0  0  0  0
   -0.9344   -5.7659   -2.4928 H   0  0  0  0  0  0  0  0  0  0  0  0
   -2.8571   -4.4217    1.1274 H   0  0  0  0  0  0  0  0  0  0  0  0
   -2.6966   -6.0413   -0.7579 H   0  0  0  0  0  0  0  0  0  0  0  0
    2.8843   -3.5241   -0.7047 C   0  0  0  0  0  0  0  0  0  0  0  0
    4.1961   -5.9445   -1.1781 C   0  0  0  0  0  0  0  0  0  0  0  0
    3.8221   -3.6187   -1.7457 C   0  0  0  0  0  0  0  0  0  0  0  0
    2.6092   -4.6371    0.1055 C   0  0  0  0  0  0  0  0  0  0  0  0
    3.2669   -5.8453   -0.1369 C   0  0  0  0  0  0  0  0  0  0  0  0
    4.4735   -4.8322   -1.9794 C   0  0  0  0  0  0  0  0  0  0  0  0
    4.0447   -2.7452   -2.3605 H   0  0  0  0  0  0  0  0  0  0  0  0
    1.8880   -4.5574    0.9198 H   0  0  0  0  0  0  0  0  0  0  0  0
    3.0566   -6.7111    0.4902 H   0  0  0  0  0  0  0  0  0  0  0  0
    5.2024   -4.9088   -2.7857 H   0  0  0  0  0  0  0  0  0  0  0  0
    4.7075   -6.8887   -1.3625 H   0  0  0  0  0  0  0  0  0  0  0  0
  1  2  1  0  0  0  0
  1  3  2  0  0  0  0
  3  4  1  0  0  0  0
  2  5  1  0  0  0  0
  5  6  1  0  0  0  0
  5  7  1  0  0  0  0
  7  8  1  0  0  0  0
  7  9  1  0  0  0  0
  7 10  1  0  0  0  0
  5 11  1  0  0  0  0
 11 12  1  0  0  0  0
 11 13  1  0  0  0  0
 11 14  1  0  0  0  0
  2 15  1  0  0  0  0
 15 24  1  0  0  0  0
 15 16  2  0  0  0  0
 16 17  1  0  0  0  0
 16 18  1  0  0  0  0
 18 19  1  0  0  0  0
 18 20  2  0  0  0  0
 20 21  1  0  0  0  0
 20 22  1  0  0  0  0
 22 24  2  0  0  0  0
 22 23  1  0  0  0  0
  3 24  1  0  0  0  0
  1 25  1  0  0  0  0
  1 26  1  0  0  0  0
 27 28  1  0  0  0  0
 27 31  1  0  0  0  0
 28 29  1  0  0  0  0
 28 32  1  0  0  0  0
 30 31  1  0  0  0  0
 29 30  2  0  0  0  0
 30 54  1  0  0  0  0
 31 43  1  0  0  0  0
 32 35  2  0  0  0  0
 32 34  1  0  0  0  0
 33 36  2  0  0  0  0
 33 37  1  0  0  0  0
 33 42  1  0  0  0  0
 34 37  2  0  0  0  0
 34 41  1  0  0  0  0
 35 36  1  0  0  0  0
 35 40  1  0  0  0  0
 36 38  1  0  0  0  0
 37 39  1  0  0  0  0
 43 46  2  0  0  0  0
 43 45  1  0  0  0  0
 44 47  2  0  0  0  0
 44 48  1  0  0  0  0
 44 53  1  0  0  0  0
 45 48  2  0  0  0  0
 45 49  1  0  0  0  0
 46 47  1  0  0  0  0
 46 50  1  0  0  0  0
 47 51  1  0  0  0  0
 48 52  1  0  0  0  0
 54 57  2  0  0  0  0
 54 56  1  0  0  0  0
 55 58  2  0  0  0  0
 55 59  1  0  0  0  0
 55 64  1  0  0  0  0
 56 59  2  0  0  0  0
 56 60  1  0  0  0  0
 57 58  1  0  0  0  0
 57 61  1  0  0  0  0
 58 62  1  0  0  0  0
 59 63  1  0  0  0  0
  1 27  1  0  0  0  0
M  END
> <FrozenCore-PM6_ENERGY>
476.877

> <RMSD_CONF_CG-CS>
2.713684

> <RMSD_CONF_GO-CS>
0.000000

> <UID>


> <DESCRIPTOR_DEFINITION_1>
desc1=( echo "1 * ( e( $hartree_to_kcalmol * ( ( $freeEnergyZ - $freeEnergyD ) - ( $freeEnergyX + 2*$G_Ethene - $freeEnergyD - 2*$G_Propene ) - $DDG_reference_HGII ) / $kT ) ) " | bc -l )

> <DESCRIPTOR_DEFINITION_2>
desc1=( echo "1 * ( e( $hartree_to_kcalmol * ( ( $freeEnergyZ - $freeEnergyD ) - ( $freeEnergyX + 2*$G_Ethene - $freeEnergyD - 2*$G_Propene ) - $DDG_reference_HGII ) / $kT ) ) " | bc -l )

> <DESCRIPTOR_DEFINITION_3>
desc1=( echo "1 * ( e( $hartree_to_kcalmol * ( ( $freeEnergyZ - $freeEnergyD ) - ( $freeEnergyX + 2*$G_Ethene - $freeEnergyD - 2*$G_Propene ) - $DDG_reference_HGII ) / $kT ) ) " | bc -l )

> <WEIGHT_DEFINITION_1>
w1=$( echo "1 / ( 1 + e( $hartree_to_kcalmol * ( ( ( $freeEnergyX + 2*$G_Ethene - $freeEnergyD - 2*$G_Propene ) ) - ( $DG_referenceProductionBarrier + $magnitude4 ) ) / $kT ) )" | bc -l )

> <WEIGHT_DEFINITION_2>
w1=$( echo "1 / ( 1 + e( $hartree_to_kcalmol * ( ( ( $freeEnergyX + 2*$G_Ethene - $freeEnergyD - 2*$G_Propene ) ) - ( $DG_referenceProductionBarrier + $magnitude4 ) ) / $kT ) )" | bc -l )

> <WEIGHT_DEFINITION_3>
w1=$( echo "1 / ( 1 + e( $hartree_to_kcalmol * ( ( ( $freeEnergyX + 2*$G_Ethene - $freeEnergyD - 2*$G_Propene ) ) - ( $DG_referenceProductionBarrier + $magnitude4 ) ) / $kT ) )" | bc -l )

> <WEIGHT_DEFINITION_4>
w1=$( echo "1 / ( 1 + e( $hartree_to_kcalmol * ( ( ( $freeEnergyX + 2*$G_Ethene - $freeEnergyD - 2*$G_Propene ) ) - ( $DG_referenceProductionBarrier + $magnitude4 ) ) / $kT ) )" | bc -l )

> <CALCULATION_OF_OVERALL_FITNESS>
fitness=$( echo "( $desc1 + $desc2 + $desc3 ) * ( $w1 * $w2 * $w3 * $w4 )" | bc -l )

> <freeEnergyA>
-2412.18241841

> <freeEnergyF>
-2412.16437503

> <freeEnergyE>
-2412.18241841

> <freeEnergyC>
-2066.92104401

> <freeEnergyL>
-934.328433269

> <freeEnergyX>
-2145.45244246

> <freeEnergyZ>
-2066.90692612

> <freeEnergyD>
-2066.94244232

> <G_Propene>
-117.738020895

> <G_Ethene>
-78.4716324751

> <G_HoveydaProd>
-502.204109499

> <G_SIMes>
-924.27249048

> <G_HG_RuCl2_SIMes>
-2402.13728523

> <DG_referenceProductionBarrier>
0.01468968

> <DG_referencePrecursorStabilityHII>
-0.0052201621

> <DG_referencePrecursorStabilityHI>
0.0117775312

> <DDG_referencePrecursorStability>
.0169976933

> <DG_referenceSynt>
0.0226072217

> <hartree_to_kcalmol>
627.49467516

> <boltzmann_constant>
0.0000000000000000000000138066

> <avogadro_number>
602214000000000000000000

> <jmol_to_kcalmol>
0.00023901

> <temp>
313.15

> <kT>
.6223089948281258706000000000

> <magnitude1>
1.43290809

> <magnitude2>
2.86581618

> <magnitude3>
4.29872427

> <magnitude4>
5.73163236

> <DFT_IDENTIFIER>
1723525374868

> <DFT_MACHINE>
158.39.114.73

> <XTB_IDENTIFIER>
NREC

> <XTB_MACHINE>
NREC

> <DESCRIPTOR_1>
.00006972952074794197

> <DESCRIPTOR_2>
7.993968539699755032

> <DESCRIPTOR_3>
0.0000000001

> <WEIGHT_1>
.99983357213440894092

> <WEIGHT_2>
.99999881287320547404

> <WEIGHT_3>
.99999931817150226012

> <WEIGHT_4>
.99999874528531653590

> <FITNESS>
7.99268287203759889107

$$$$
