
  CDK     08152411073D

 72 76  0  0  0  0  0  0  0  0999 V2000
   -1.6806   -0.7991    0.9859 Ru  0  0  0  0  0  0  0  0  0  0  0  0
   -3.4280    0.1033    0.9675 C   0  0  0  0  0  0  0  0  0  0  0  0
   -3.4709    1.0656    1.5070 H   0  0  0  0  0  0  0  0  0  0  0  0
   -3.7362   -1.1440    1.9004 C   0  0  0  0  0  0  0  0  0  0  0  0
   -4.0508   -0.7300    2.8756 H   0  0  0  0  0  0  0  0  0  0  0  0
   -2.5300   -2.1117    2.1903 C   0  0  0  0  0  0  0  0  0  0  0  0
   -2.6410   -3.1162    1.7469 H   0  0  0  0  0  0  0  0  0  0  0  0
   -2.1787   -2.0780    3.2356 H   0  0  0  0  0  0  0  0  0  0  0  0
   -4.5100   -1.7384    1.3821 H   0  0  0  0  0  0  0  0  0  0  0  0
   -3.9676    0.0614    0.0052 H   0  0  0  0  0  0  0  0  0  0  0  0
   -1.1216    0.4536    2.9439 Cl  0  0  0  0  0  0  0  0  0  0  0  0
   -2.4445   -2.1312   -0.8519 Cl  0  0  0  0  0  0  0  0  0  0  0  0
   -0.8179    2.4702   -3.3243 C   0  0  0  0  0  0  0  0  0  0  0  0
   -0.5582    1.2556   -2.6612 C   0  0  0  0  0  0  0  0  0  0  0  0
    0.0516    1.3131   -1.3749 C   0  0  0  0  0  0  0  0  0  0  0  0
    0.2615    2.5617   -0.7200 C   0  0  0  0  0  0  0  0  0  0  0  0
   -0.0160    3.7397   -1.4402 C   0  0  0  0  0  0  0  0  0  0  0  0
   -0.5170    3.7031   -2.7425 C   0  0  0  0  0  0  0  0  0  0  0  0
    0.6000    0.1015   -0.7823 N   0  0  0  0  0  0  0  0  0  0  0  0
    2.0209   -0.3294   -1.1632 C   0  0  0  0  0  0  0  0  0  0  0  0
    2.0722   -1.7203   -0.5104 C   0  0  0  0  0  0  0  0  0  0  0  0
    1.1124   -1.6623    0.6946 C   0  0  0  0  0  0  0  0  0  0  0  0
    0.0729   -0.6497    0.1884 C   0  0  0  0  0  0  0  0  0  0  0  0
    0.5396   -3.0107    1.1163 C   0  0  0  0  0  0  0  0  0  0  0  0
    0.6426   -3.2016    2.5070 C   0  0  0  0  0  0  0  0  0  0  0  0
    1.2552   -2.0040    3.1825 C   0  0  0  0  0  0  0  0  0  0  0  0
    1.7823   -1.1339    2.0195 C   0  0  0  0  0  0  0  0  0  0  0  0
   -0.0248   -3.9967    0.2947 C   0  0  0  0  0  0  0  0  0  0  0  0
   -0.4977   -5.1798    0.8811 C   0  0  0  0  0  0  0  0  0  0  0  0
   -0.4034   -5.3720    2.2715 C   0  0  0  0  0  0  0  0  0  0  0  0
    0.1672   -4.3850    3.0910 C   0  0  0  0  0  0  0  0  0  0  0  0
    3.0444    0.6522   -0.5839 C   0  0  0  0  0  0  0  0  0  0  0  0
    2.1982   -0.4126   -2.6762 C   0  0  0  0  0  0  0  0  0  0  0  0
    0.6487    2.7176    0.7467 C   0  0  0  0  0  0  0  0  0  0  0  0
    1.9126    3.5660    0.9680 C   0  0  0  0  0  0  0  0  0  0  0  0
   -1.0671   -0.0229   -3.3175 C   0  0  0  0  0  0  0  0  0  0  0  0
   -2.6091    0.0199   -3.3364 C   0  0  0  0  0  0  0  0  0  0  0  0
   -0.5338    3.3589    1.5006 C   0  0  0  0  0  0  0  0  0  0  0  0
   -0.5533   -0.2293   -4.7532 C   0  0  0  0  0  0  0  0  0  0  0  0
    3.0974   -2.0069   -0.2098 H   0  0  0  0  0  0  0  0  0  0  0  0
    1.7014   -2.4737   -1.2330 H   0  0  0  0  0  0  0  0  0  0  0  0
    1.5615   -0.0648    2.1970 H   0  0  0  0  0  0  0  0  0  0  0  0
    2.8792   -1.2484    1.9108 H   0  0  0  0  0  0  0  0  0  0  0  0
    0.4808   -1.4460    3.7502 H   0  0  0  0  0  0  0  0  0  0  0  0
    2.0581   -2.2828    3.8943 H   0  0  0  0  0  0  0  0  0  0  0  0
    0.2426   -4.5379    4.1780 H   0  0  0  0  0  0  0  0  0  0  0  0
   -0.7779   -6.3042    2.7196 H   0  0  0  0  0  0  0  0  0  0  0  0
   -0.9526   -5.9559    0.2492 H   0  0  0  0  0  0  0  0  0  0  0  0
   -0.1321   -3.8346   -0.7859 H   0  0  0  0  0  0  0  0  0  0  0  0
    2.9562    0.7526    0.5122 H   0  0  0  0  0  0  0  0  0  0  0  0
    2.9202    1.6524   -1.0407 H   0  0  0  0  0  0  0  0  0  0  0  0
    4.0663    0.2961   -0.8211 H   0  0  0  0  0  0  0  0  0  0  0  0
    1.4954   -1.1365   -3.1249 H   0  0  0  0  0  0  0  0  0  0  0  0
    3.2295   -0.7572   -2.8903 H   0  0  0  0  0  0  0  0  0  0  0  0
    2.0603    0.5727   -3.1614 H   0  0  0  0  0  0  0  0  0  0  0  0
    0.1565    4.7096   -0.9526 H   0  0  0  0  0  0  0  0  0  0  0  0
   -1.2789    2.4394   -4.3215 H   0  0  0  0  0  0  0  0  0  0  0  0
   -0.7082    4.6373   -3.2903 H   0  0  0  0  0  0  0  0  0  0  0  0
    0.8049    1.7126    1.1838 H   0  0  0  0  0  0  0  0  0  0  0  0
   -0.3314    3.3722    2.5890 H   0  0  0  0  0  0  0  0  0  0  0  0
   -1.4647    2.7833    1.3474 H   0  0  0  0  0  0  0  0  0  0  0  0
   -0.6985    4.4020    1.1595 H   0  0  0  0  0  0  0  0  0  0  0  0
    2.1449    3.6189    2.0508 H   0  0  0  0  0  0  0  0  0  0  0  0
    1.7642    4.6072    0.6146 H   0  0  0  0  0  0  0  0  0  0  0  0
    2.8005    3.1608    0.4479 H   0  0  0  0  0  0  0  0  0  0  0  0
   -0.7732   -0.8861   -2.6884 H   0  0  0  0  0  0  0  0  0  0  0  0
   -0.9184   -1.1994   -5.1469 H   0  0  0  0  0  0  0  0  0  0  0  0
    0.5505   -0.2239   -4.8240 H   0  0  0  0  0  0  0  0  0  0  0  0
   -0.9330    0.5602   -5.4340 H   0  0  0  0  0  0  0  0  0  0  0  0
   -3.0165    0.1872   -2.3233 H   0  0  0  0  0  0  0  0  0  0  0  0
   -3.0143   -0.9451   -3.6994 H   0  0  0  0  0  0  0  0  0  0  0  0
   -2.9705    0.8275   -4.0067 H   0  0  0  0  0  0  0  0  0  0  0  0
  2  4  1  0  0  0  0
  2  1  1  0  0  0  0
  2  3  1  0  0  0  0
  4  6  1  0  0  0  0
  4  5  1  0  0  0  0
  6  1  1  0  0  0  0
  6  8  1  0  0  0  0
  7  6  1  0  0  0  0
  9  4  1  0  0  0  0
 10  2  1  0  0  0  0
  1 11  1  0  0  0  0
  1 12  1  0  0  0  0
 13 14  2  0  0  0  0
 13 18  1  0  0  0  0
 13 57  1  0  0  0  0
 14 15  1  0  0  0  0
 14 36  1  0  0  0  0
 15 16  2  0  0  0  0
 15 19  1  0  0  0  0
 16 17  1  0  0  0  0
 16 34  1  0  0  0  0
 17 18  2  0  0  0  0
 17 56  1  0  0  0  0
 18 58  1  0  0  0  0
 19 20  1  0  0  0  0
 19 23  1  0  0  0  0
 20 21  1  0  0  0  0
 20 32  1  0  0  0  0
 20 33  1  0  0  0  0
 21 22  1  0  0  0  0
 21 40  1  0  0  0  0
 21 41  1  0  0  0  0
 22 23  1  0  0  0  0
 22 24  1  0  0  0  0
 22 27  1  0  0  0  0
 24 25  2  0  0  0  0
 24 28  1  0  0  0  0
 25 26  1  0  0  0  0
 25 31  1  0  0  0  0
 26 27  1  0  0  0  0
 26 44  1  0  0  0  0
 26 45  1  0  0  0  0
 27 42  1  0  0  0  0
 27 43  1  0  0  0  0
 28 29  2  0  0  0  0
 28 49  1  0  0  0  0
 29 30  1  0  0  0  0
 29 48  1  0  0  0  0
 30 31  2  0  0  0  0
 30 47  1  0  0  0  0
 31 46  1  0  0  0  0
 32 50  1  0  0  0  0
 32 51  1  0  0  0  0
 32 52  1  0  0  0  0
 33 53  1  0  0  0  0
 33 54  1  0  0  0  0
 33 55  1  0  0  0  0
 34 35  1  0  0  0  0
 34 38  1  0  0  0  0
 34 59  1  0  0  0  0
 35 63  1  0  0  0  0
 35 64  1  0  0  0  0
 35 65  1  0  0  0  0
 36 37  1  0  0  0  0
 36 39  1  0  0  0  0
 36 66  1  0  0  0  0
 37 70  1  0  0  0  0
 37 71  1  0  0  0  0
 37 72  1  0  0  0  0
 38 60  1  0  0  0  0
 38 61  1  0  0  0  0
 38 62  1  0  0  0  0
 39 67  1  0  0  0  0
 39 68  1  0  0  0  0
 39 69  1  0  0  0  0
  1 23  1  0  0  0  0
M  END
>  <DFT-ENERGY>
-2196.70715632

$$$$
