
  CDK     08152406053D

 72 77  0  0  0  0  0  0  0  0999 V2000
    0.9864    1.3480   -2.8271 H   0  0  0  0  0  0  0  0  0  0  0  0
    0.9646    2.5777   -2.8660 C   0  0  0  0  0  0  0  0  0  0  0  0
    0.7273    2.5472   -3.9495 H   0  0  0  0  0  0  0  0  0  0  0  0
    2.3290    2.8495   -2.3499 C   0  0  0  0  0  0  0  0  0  0  0  0
    2.5169    3.7838   -1.8011 H   0  0  0  0  0  0  0  0  0  0  0  0
    3.1661    2.4627   -2.9555 H   0  0  0  0  0  0  0  0  0  0  0  0
    1.4209    1.4257   -1.1092 Ru  0  0  0  0  0  0  0  0  0  0  0  0
   -0.0614    2.7601   -1.8055 C   0  0  0  0  0  0  0  0  0  0  0  0
   -0.0623    3.7021   -1.2392 H   0  0  0  0  0  0  0  0  0  0  0  0
   -1.0541    2.3178   -2.0015 H   0  0  0  0  0  0  0  0  0  0  0  0
    1.6690    3.1590    0.5512 Cl  0  0  0  0  0  0  0  0  0  0  0  0
    2.3346   -0.4487   -2.3080 Cl  0  0  0  0  0  0  0  0  0  0  0  0
   -2.7562    0.2269    1.6768 C   0  0  0  0  0  0  0  0  0  0  0  0
   -1.3608    0.4130    1.6798 C   0  0  0  0  0  0  0  0  0  0  0  0
   -0.5662   -0.4438    0.8623 C   0  0  0  0  0  0  0  0  0  0  0  0
   -1.1812   -1.3570   -0.0425 C   0  0  0  0  0  0  0  0  0  0  0  0
   -2.5824   -1.4893   -0.0020 C   0  0  0  0  0  0  0  0  0  0  0  0
   -3.3672   -0.7382    0.8747 C   0  0  0  0  0  0  0  0  0  0  0  0
    0.8794   -0.4805    1.0744 N   0  0  0  0  0  0  0  0  0  0  0  0
    1.4551   -1.5215    2.0474 C   0  0  0  0  0  0  0  0  0  0  0  0
    2.9634   -1.3482    1.7920 C   0  0  0  0  0  0  0  0  0  0  0  0
    3.1567    0.0681    1.1802 C   0  0  0  0  0  0  0  0  0  0  0  0
    1.7939    0.3347    0.5471 C   0  0  0  0  0  0  0  0  0  0  0  0
    3.6226    1.0680    2.2606 C   0  0  0  0  0  0  0  0  0  0  0  0
    5.0288    1.1779    2.2125 C   0  0  0  0  0  0  0  0  0  0  0  0
    5.5885    0.3690    1.0695 C   0  0  0  0  0  0  0  0  0  0  0  0
    4.3487    0.1430    0.1877 C   0  0  0  0  0  0  0  0  0  0  0  0
    2.9063    1.7487    3.2528 C   0  0  0  0  0  0  0  0  0  0  0  0
    3.5974    2.5271    4.1954 C   0  0  0  0  0  0  0  0  0  0  0  0
    4.9971    2.6283    4.1511 C   0  0  0  0  0  0  0  0  0  0  0  0
    5.7185    1.9516    3.1551 C   0  0  0  0  0  0  0  0  0  0  0  0
    0.9935   -2.9318    1.6846 C   0  0  0  0  0  0  0  0  0  0  0  0
    1.0305   -1.2101    3.4841 C   0  0  0  0  0  0  0  0  0  0  0  0
   -0.4444   -2.0901   -1.1560 C   0  0  0  0  0  0  0  0  0  0  0  0
   -0.7397   -3.5975   -1.2204 C   0  0  0  0  0  0  0  0  0  0  0  0
   -0.8185    1.5994    2.4640 C   0  0  0  0  0  0  0  0  0  0  0  0
   -1.3991    2.8999    1.8738 C   0  0  0  0  0  0  0  0  0  0  0  0
   -0.8329   -1.4344   -2.4976 C   0  0  0  0  0  0  0  0  0  0  0  0
   -1.1130    1.5399    3.9716 C   0  0  0  0  0  0  0  0  0  0  0  0
    3.2930   -2.1004    1.0481 H   0  0  0  0  0  0  0  0  0  0  0  0
    3.5506   -1.4910    2.7175 H   0  0  0  0  0  0  0  0  0  0  0  0
    4.1882    1.0272   -0.4619 H   0  0  0  0  0  0  0  0  0  0  0  0
    4.4000   -0.7436   -0.4678 H   0  0  0  0  0  0  0  0  0  0  0  0
    6.4100    0.8821    0.5318 H   0  0  0  0  0  0  0  0  0  0  0  0
    6.0012   -0.5954    1.4428 H   0  0  0  0  0  0  0  0  0  0  0  0
    6.8147    2.0353    3.1055 H   0  0  0  0  0  0  0  0  0  0  0  0
    5.5269    3.2481    4.8891 H   0  0  0  0  0  0  0  0  0  0  0  0
    3.0307    3.0746    4.9623 H   0  0  0  0  0  0  0  0  0  0  0  0
    1.8116    1.7176    3.2839 H   0  0  0  0  0  0  0  0  0  0  0  0
    1.2911   -3.2035    0.6564 H   0  0  0  0  0  0  0  0  0  0  0  0
   -0.1023   -3.0476    1.7890 H   0  0  0  0  0  0  0  0  0  0  0  0
    1.4793   -3.6441    2.3810 H   0  0  0  0  0  0  0  0  0  0  0  0
    1.3970   -0.2266    3.8241 H   0  0  0  0  0  0  0  0  0  0  0  0
    1.4522   -1.9821    4.1576 H   0  0  0  0  0  0  0  0  0  0  0  0
   -0.0718   -1.2430    3.5809 H   0  0  0  0  0  0  0  0  0  0  0  0
   -3.0645   -2.1978   -0.6902 H   0  0  0  0  0  0  0  0  0  0  0  0
   -3.3741    0.8732    2.3163 H   0  0  0  0  0  0  0  0  0  0  0  0
   -4.4576   -0.8778    0.9045 H   0  0  0  0  0  0  0  0  0  0  0  0
    0.6439   -1.9367   -1.0269 H   0  0  0  0  0  0  0  0  0  0  0  0
   -0.2089   -1.8365   -3.3194 H   0  0  0  0  0  0  0  0  0  0  0  0
   -0.6728   -0.3389   -2.4579 H   0  0  0  0  0  0  0  0  0  0  0  0
   -1.9008   -1.6218   -2.7341 H   0  0  0  0  0  0  0  0  0  0  0  0
   -0.1246   -4.0658   -2.0149 H   0  0  0  0  0  0  0  0  0  0  0  0
   -1.8017   -3.7951   -1.4734 H   0  0  0  0  0  0  0  0  0  0  0  0
   -0.5225   -4.1175   -0.2682 H   0  0  0  0  0  0  0  0  0  0  0  0
    0.2731    1.6476    2.3011 H   0  0  0  0  0  0  0  0  0  0  0  0
   -0.6770    2.4264    4.4757 H   0  0  0  0  0  0  0  0  0  0  0  0
   -0.6984    0.6357    4.4544 H   0  0  0  0  0  0  0  0  0  0  0  0
   -2.2047    1.5553    4.1693 H   0  0  0  0  0  0  0  0  0  0  0  0
   -1.2311    2.9482    0.7828 H   0  0  0  0  0  0  0  0  0  0  0  0
   -0.8995    3.7784    2.3273 H   0  0  0  0  0  0  0  0  0  0  0  0
   -2.4886    2.9767    2.0713 H   0  0  0  0  0  0  0  0  0  0  0  0
  1  2  1  0  0  0  0
  1  7  1  0  0  0  0
  2  3  1  0  0  0  0
  2  4  1  0  0  0  0
  4  5  1  0  0  0  0
  4  6  1  0  0  0  0
  7  8  1  0  0  0  0
  4  7  1  0  0  0  0
  2  8  1  0  0  0  0
  8  9  1  0  0  0  0
  8 10  1  0  0  0  0
  7 11  1  0  0  0  0
  7 12  1  0  0  0  0
 13 14  2  0  0  0  0
 13 18  1  0  0  0  0
 13 57  1  0  0  0  0
 14 15  1  0  0  0  0
 14 36  1  0  0  0  0
 15 16  2  0  0  0  0
 15 19  1  0  0  0  0
 16 17  1  0  0  0  0
 16 34  1  0  0  0  0
 17 18  2  0  0  0  0
 17 56  1  0  0  0  0
 18 58  1  0  0  0  0
 19 20  1  0  0  0  0
 19 23  1  0  0  0  0
 20 21  1  0  0  0  0
 20 32  1  0  0  0  0
 20 33  1  0  0  0  0
 21 22  1  0  0  0  0
 21 40  1  0  0  0  0
 21 41  1  0  0  0  0
 22 23  1  0  0  0  0
 22 24  1  0  0  0  0
 22 27  1  0  0  0  0
 24 25  2  0  0  0  0
 24 28  1  0  0  0  0
 25 26  1  0  0  0  0
 25 31  1  0  0  0  0
 26 27  1  0  0  0  0
 26 44  1  0  0  0  0
 26 45  1  0  0  0  0
 27 42  1  0  0  0  0
 27 43  1  0  0  0  0
 28 29  2  0  0  0  0
 28 49  1  0  0  0  0
 29 30  1  0  0  0  0
 29 48  1  0  0  0  0
 30 31  2  0  0  0  0
 30 47  1  0  0  0  0
 31 46  1  0  0  0  0
 32 50  1  0  0  0  0
 32 51  1  0  0  0  0
 32 52  1  0  0  0  0
 33 53  1  0  0  0  0
 33 54  1  0  0  0  0
 33 55  1  0  0  0  0
 34 35  1  0  0  0  0
 34 38  1  0  0  0  0
 34 59  1  0  0  0  0
 35 63  1  0  0  0  0
 35 64  1  0  0  0  0
 35 65  1  0  0  0  0
 36 37  1  0  0  0  0
 36 39  1  0  0  0  0
 36 66  1  0  0  0  0
 37 70  1  0  0  0  0
 37 71  1  0  0  0  0
 37 72  1  0  0  0  0
 38 60  1  0  0  0  0
 38 61  1  0  0  0  0
 38 62  1  0  0  0  0
 39 67  1  0  0  0  0
 39 68  1  0  0  0  0
 39 69  1  0  0  0  0
  7 23  1  0  0  0  0
M  END
>  <DFT-ENERGY>
-2196.65149828

$$$$
