SpiroCAAC-4_A1
  CDK     08122409433D

 86 91  0  0  0  0  0  0  0  0999 V2000
   -1.0580    0.0022   -0.7403 Ru  0  0  0  0  0  0  0  0  0  0  0  0
   -2.8358    0.0022   -2.1295 O   0  0  0  0  0  0  0  0  0  0  0  0
   -2.2682    0.9355    0.2638 C   0  0  0  0  0  0  0  0  0  0  0  0
   -2.0354    1.2284    1.2865 H   0  0  0  0  0  0  0  0  0  0  0  0
   -3.0713   -0.7730   -3.3553 C   0  0  0  0  0  0  0  0  0  0  0  0
   -3.4864   -0.0756   -4.1135 H   0  0  0  0  0  0  0  0  0  0  0  0
   -1.6500   -1.2091   -3.6804 C   0  0  0  0  0  0  0  0  0  0  0  0
   -1.5830   -1.7047   -4.6520 H   0  0  0  0  0  0  0  0  0  0  0  0
   -1.2529   -1.9059   -2.9149 H   0  0  0  0  0  0  0  0  0  0  0  0
   -0.9621   -0.3381   -3.6902 H   0  0  0  0  0  0  0  0  0  0  0  0
   -4.0059   -1.9231   -3.0230 C   0  0  0  0  0  0  0  0  0  0  0  0
   -4.0076   -2.6860   -3.8078 H   0  0  0  0  0  0  0  0  0  0  0  0
   -5.0380   -1.5951   -2.8611 H   0  0  0  0  0  0  0  0  0  0  0  0
   -3.6790   -2.4161   -2.0871 H   0  0  0  0  0  0  0  0  0  0  0  0
   -3.8280    0.8006   -1.6245 C   0  0  0  0  0  0  0  0  0  0  0  0
   -4.9972    1.1492   -2.2774 C   0  0  0  0  0  0  0  0  0  0  0  0
   -5.2162    0.7983   -3.2830 H   0  0  0  0  0  0  0  0  0  0  0  0
   -5.8984    1.9803   -1.6199 C   0  0  0  0  0  0  0  0  0  0  0  0
   -6.8210    2.2675   -2.1284 H   0  0  0  0  0  0  0  0  0  0  0  0
   -5.6483    2.4520   -0.3347 C   0  0  0  0  0  0  0  0  0  0  0  0
   -6.3733    3.0964    0.1597 H   0  0  0  0  0  0  0  0  0  0  0  0
   -4.4786    2.0917    0.3069 C   0  0  0  0  0  0  0  0  0  0  0  0
   -4.2854    2.4463    1.3182 H   0  0  0  0  0  0  0  0  0  0  0  0
   -3.5431    1.2763   -0.3325 C   0  0  0  0  0  0  0  0  0  0  0  0
   -1.6449   -2.1433   -0.1919 Cl  0  0  0  0  0  0  0  0  0  0  0  0
   -0.2352    1.7074   -2.0989 Cl  0  0  0  0  0  0  0  0  0  0  0  0
   -0.6422    3.7869    3.0011 C   0  0  0  0  0  0  0  0  0  0  0  0
    0.0201    3.0092    2.0367 C   0  0  0  0  0  0  0  0  0  0  0  0
    0.1997    1.6281    2.2860 C   0  0  0  0  0  0  0  0  0  0  0  0
   -0.3638    1.0259    3.4417 C   0  0  0  0  0  0  0  0  0  0  0  0
   -1.0289    1.8382    4.3695 C   0  0  0  0  0  0  0  0  0  0  0  0
   -1.1491    3.2131    4.1642 C   0  0  0  0  0  0  0  0  0  0  0  0
    0.9969    0.8057    1.3897 N   0  0  0  0  0  0  0  0  0  0  0  0
    2.5051    0.7087    1.6493 C   0  0  0  0  0  0  0  0  0  0  0  0
    2.9845   -0.1632    0.4608 C   0  0  0  0  0  0  0  0  0  0  0  0
    1.7140   -0.8335   -0.1208 C   0  0  0  0  0  0  0  0  0  0  0  0
    0.5381    0.0745    0.3282 C   0  0  0  0  0  0  0  0  0  0  0  0
    1.8241   -1.0533   -1.6148 C   0  0  0  0  0  0  0  0  0  0  0  0
    1.7109   -2.4291   -1.9403 C   0  0  0  0  0  0  0  0  0  0  0  0
    1.4645   -3.2636   -0.7178 C   0  0  0  0  0  0  0  0  0  0  0  0
    1.5156   -2.2726    0.4679 C   0  0  0  0  0  0  0  0  0  0  0  0
    2.1011   -0.1217   -2.6090 C   0  0  0  0  0  0  0  0  0  0  0  0
    2.2336   -0.5643   -3.9376 C   0  0  0  0  0  0  0  0  0  0  0  0
    2.1068   -1.9169   -4.2545 C   0  0  0  0  0  0  0  0  0  0  0  0
    1.8461   -2.8664   -3.2523 C   0  0  0  0  0  0  0  0  0  0  0  0
    2.7820    0.0347    2.9970 C   0  0  0  0  0  0  0  0  0  0  0  0
    3.1588    2.0909    1.6193 C   0  0  0  0  0  0  0  0  0  0  0  0
   -0.3371   -0.4766    3.6768 C   0  0  0  0  0  0  0  0  0  0  0  0
   -0.0192   -0.8264    5.1368 C   0  0  0  0  0  0  0  0  0  0  0  0
    0.4500    3.6847    0.7448 C   0  0  0  0  0  0  0  0  0  0  0  0
   -0.7932    4.0978   -0.0541 C   0  0  0  0  0  0  0  0  0  0  0  0
   -1.6800   -1.0727    3.2401 C   0  0  0  0  0  0  0  0  0  0  0  0
    1.3469    4.9002    1.0203 C   0  0  0  0  0  0  0  0  0  0  0  0
    3.7361   -0.9078    0.7662 H   0  0  0  0  0  0  0  0  0  0  0  0
    3.4826    0.4522   -0.3105 H   0  0  0  0  0  0  0  0  0  0  0  0
    0.5840   -2.3302    1.0641 H   0  0  0  0  0  0  0  0  0  0  0  0
    2.3369   -2.5308    1.1545 H   0  0  0  0  0  0  0  0  0  0  0  0
    0.4717   -3.7583   -0.7731 H   0  0  0  0  0  0  0  0  0  0  0  0
    2.2120   -4.0678   -0.6115 H   0  0  0  0  0  0  0  0  0  0  0  0
    1.7577   -3.9197   -3.5016 H   0  0  0  0  0  0  0  0  0  0  0  0
    2.2158   -2.2451   -5.2867 H   0  0  0  0  0  0  0  0  0  0  0  0
    2.4359    0.1633   -4.7212 H   0  0  0  0  0  0  0  0  0  0  0  0
    2.2208    0.9367   -2.3725 H   0  0  0  0  0  0  0  0  0  0  0  0
    2.2672   -0.9335    3.0811 H   0  0  0  0  0  0  0  0  0  0  0  0
    2.4390    0.6543    3.8362 H   0  0  0  0  0  0  0  0  0  0  0  0
    3.8530   -0.1421    3.1402 H   0  0  0  0  0  0  0  0  0  0  0  0
    2.9847    2.6056    0.6640 H   0  0  0  0  0  0  0  0  0  0  0  0
    4.2428    2.0156    1.7599 H   0  0  0  0  0  0  0  0  0  0  0  0
    2.7702    2.7443    2.4122 H   0  0  0  0  0  0  0  0  0  0  0  0
   -1.4657    1.3889    5.2615 H   0  0  0  0  0  0  0  0  0  0  0  0
   -0.7697    4.8555    2.8265 H   0  0  0  0  0  0  0  0  0  0  0  0
   -1.6531    3.8324    4.9049 H   0  0  0  0  0  0  0  0  0  0  0  0
    0.4633   -0.9462    3.0427 H   0  0  0  0  0  0  0  0  0  0  0  0
   -1.7074   -2.1571    3.3937 H   0  0  0  0  0  0  0  0  0  0  0  0
   -1.8556   -0.9052    2.1614 H   0  0  0  0  0  0  0  0  0  0  0  0
   -2.5255   -0.6390    3.7823 H   0  0  0  0  0  0  0  0  0  0  0  0
    0.1350   -1.9050    5.2536 H   0  0  0  0  0  0  0  0  0  0  0  0
   -0.8353   -0.5466    5.8130 H   0  0  0  0  0  0  0  0  0  0  0  0
    0.8860   -0.3183    5.4851 H   0  0  0  0  0  0  0  0  0  0  0  0
    1.0222    2.9549    0.1093 H   0  0  0  0  0  0  0  0  0  0  0  0
    1.7912    5.2689    0.0885 H   0  0  0  0  0  0  0  0  0  0  0  0
    2.1614    4.6608    1.7108 H   0  0  0  0  0  0  0  0  0  0  0  0
    0.7837    5.7326    1.4569 H   0  0  0  0  0  0  0  0  0  0  0  0
   -1.4588    3.2344   -0.2232 H   0  0  0  0  0  0  0  0  0  0  0  0
   -0.5111    4.4552   -1.0531 H   0  0  0  0  0  0  0  0  0  0  0  0
   -1.3743    4.8802    0.4384 H   0  0  0  0  0  0  0  0  0  0  0  0
  1  2  1  0  0  0  0
  1  3  2  0  0  0  0
  3  4  1  0  0  0  0
  2  5  1  0  0  0  0
  5  6  1  0  0  0  0
  5  7  1  0  0  0  0
  7  8  1  0  0  0  0
  7  9  1  0  0  0  0
  7 10  1  0  0  0  0
  5 11  1  0  0  0  0
 11 12  1  0  0  0  0
 11 13  1  0  0  0  0
 11 14  1  0  0  0  0
  2 15  1  0  0  0  0
 15 24  1  0  0  0  0
 15 16  2  0  0  0  0
 16 17  1  0  0  0  0
 16 18  1  0  0  0  0
 18 19  1  0  0  0  0
 18 20  2  0  0  0  0
 20 21  1  0  0  0  0
 20 22  1  0  0  0  0
 22 24  2  0  0  0  0
 22 23  1  0  0  0  0
  3 24  1  0  0  0  0
  1 25  1  0  0  0  0
  1 26  1  0  0  0  0
 27 28  2  0  0  0  0
 27 32  1  0  0  0  0
 27 71  1  0  0  0  0
 28 29  1  0  0  0  0
 28 50  1  0  0  0  0
 29 30  2  0  0  0  0
 29 33  1  0  0  0  0
 30 31  1  0  0  0  0
 30 48  1  0  0  0  0
 31 32  2  0  0  0  0
 31 70  1  0  0  0  0
 32 72  1  0  0  0  0
 33 34  1  0  0  0  0
 33 37  1  0  0  0  0
 34 35  1  0  0  0  0
 34 46  1  0  0  0  0
 34 47  1  0  0  0  0
 35 36  1  0  0  0  0
 35 54  1  0  0  0  0
 35 55  1  0  0  0  0
 36 37  1  0  0  0  0
 36 38  1  0  0  0  0
 36 41  1  0  0  0  0
 38 39  2  0  0  0  0
 38 42  1  0  0  0  0
 39 40  1  0  0  0  0
 39 45  1  0  0  0  0
 40 41  1  0  0  0  0
 40 58  1  0  0  0  0
 40 59  1  0  0  0  0
 41 56  1  0  0  0  0
 41 57  1  0  0  0  0
 42 43  2  0  0  0  0
 42 63  1  0  0  0  0
 43 44  1  0  0  0  0
 43 62  1  0  0  0  0
 44 45  2  0  0  0  0
 44 61  1  0  0  0  0
 45 60  1  0  0  0  0
 46 64  1  0  0  0  0
 46 65  1  0  0  0  0
 46 66  1  0  0  0  0
 47 67  1  0  0  0  0
 47 68  1  0  0  0  0
 47 69  1  0  0  0  0
 48 49  1  0  0  0  0
 48 52  1  0  0  0  0
 48 73  1  0  0  0  0
 49 77  1  0  0  0  0
 49 78  1  0  0  0  0
 49 79  1  0  0  0  0
 50 51  1  0  0  0  0
 50 53  1  0  0  0  0
 50 80  1  0  0  0  0
 51 84  1  0  0  0  0
 51 85  1  0  0  0  0
 51 86  1  0  0  0  0
 52 74  1  0  0  0  0
 52 75  1  0  0  0  0
 52 76  1  0  0  0  0
 53 81  1  0  0  0  0
 53 82  1  0  0  0  0
 53 83  1  0  0  0  0
  1 37  1  0  0  0  0
M  END
> <FrozenCore-PM6_ENERGY>
5.455

> <RMSD_CONF_CG-CS>
0.263874

> <RMSD_CONF_GO-CS>
0.000000

> <UID>


> <DESCRIPTOR_DEFINITION_1>
desc1=( echo "1 * ( e( $hartree_to_kcalmol * ( ( $freeEnergyZ - $freeEnergyD ) - ( $freeEnergyX + 2*$G_Ethene - $freeEnergyD - 2*$G_Propene ) - $DDG_reference_HGII ) / $kT ) ) " | bc -l )

> <DESCRIPTOR_DEFINITION_2>
desc1=( echo "1 * ( e( $hartree_to_kcalmol * ( ( $freeEnergyZ - $freeEnergyD ) - ( $freeEnergyX + 2*$G_Ethene - $freeEnergyD - 2*$G_Propene ) - $DDG_reference_HGII ) / $kT ) ) " | bc -l )

> <DESCRIPTOR_DEFINITION_3>
desc1=( echo "1 * ( e( $hartree_to_kcalmol * ( ( $freeEnergyZ - $freeEnergyD ) - ( $freeEnergyX + 2*$G_Ethene - $freeEnergyD - 2*$G_Propene ) - $DDG_reference_HGII ) / $kT ) ) " | bc -l )

> <WEIGHT_DEFINITION_1>
w1=$( echo "1 / ( 1 + e( $hartree_to_kcalmol * ( ( ( $freeEnergyX + 2*$G_Ethene - $freeEnergyD - 2*$G_Propene ) ) - ( $DG_referenceProductionBarrier + $magnitude4 ) ) / $kT ) )" | bc -l )

> <WEIGHT_DEFINITION_2>
w1=$( echo "1 / ( 1 + e( $hartree_to_kcalmol * ( ( ( $freeEnergyX + 2*$G_Ethene - $freeEnergyD - 2*$G_Propene ) ) - ( $DG_referenceProductionBarrier + $magnitude4 ) ) / $kT ) )" | bc -l )

> <WEIGHT_DEFINITION_3>
w1=$( echo "1 / ( 1 + e( $hartree_to_kcalmol * ( ( ( $freeEnergyX + 2*$G_Ethene - $freeEnergyD - 2*$G_Propene ) ) - ( $DG_referenceProductionBarrier + $magnitude4 ) ) / $kT ) )" | bc -l )

> <WEIGHT_DEFINITION_4>
w1=$( echo "1 / ( 1 + e( $hartree_to_kcalmol * ( ( ( $freeEnergyX + 2*$G_Ethene - $freeEnergyD - 2*$G_Propene ) ) - ( $DG_referenceProductionBarrier + $magnitude4 ) ) / $kT ) )" | bc -l )

> <CALCULATION_OF_OVERALL_FITNESS>
fitness=$( echo "( $desc1 + $desc2 + $desc3 ) * ( $w1 * $w2 * $w3 * $w4 )" | bc -l )

> <freeEnergyA>
-2541.94525927

> <freeEnergyF>
-2541.92159639

> <freeEnergyE>
-2541.94525927

> <freeEnergyC>
-2196.6822848

> <freeEnergyL>
-1064.06643336

> <freeEnergyX>
-2275.21416766

> <freeEnergyZ>
-2196.65149672

> <freeEnergyD>
-2196.70715622

> <G_Propene>
-117.738020895

> <G_Ethene>
-78.4716324751

> <G_HoveydaProd>
-502.204109499

> <G_SIMes>
-924.27249048

> <G_HG_RuCl2_SIMes>
-2402.13728523

> <DG_referenceProductionBarrier>
0.01468968

> <DG_referencePrecursorStabilityHII>
-0.0052201621

> <DG_referencePrecursorStabilityHI>
0.0117775312

> <DDG_referencePrecursorStability>
.0169976933

> <DG_referenceSynt>
0.0226072217

> <hartree_to_kcalmol>
627.49467516

> <boltzmann_constant>
0.0000000000000000000000138066

> <avogadro_number>
602214000000000000000000

> <jmol_to_kcalmol>
0.00023901

> <temp>
313.15

> <kT>
.6223089948281258706000000000

> <magnitude1>
1.43290809

> <magnitude2>
2.86581618

> <magnitude3>
4.29872427

> <magnitude4>
5.73163236

> <DFT_IDENTIFIER>
1723716321804

> <DFT_MACHINE>
158.39.114.73

> <XTB_IDENTIFIER>
NREC

> <XTB_MACHINE>
NREC

> <DESCRIPTOR_1>
2268.01873720057068387274

> <DESCRIPTOR_2>
18.758388694199491032

> <DESCRIPTOR_3>
0.0000000001

> <WEIGHT_1>
.99662230183353339979

> <WEIGHT_2>
.99999404081046541060

> <WEIGHT_3>
.99999999999999999098

> <WEIGHT_4>
.99999999565798891660

> <FITNESS>
2279.03949178472158829102

$$$$
