
  CDK     08142422323D

 78 82  0  0  0  0  0  0  0  0999 V2000
   -3.4358   -0.3862   -3.1120 C   0  0  0  0  0  0  0  0  0  0  0  0
   -3.2686    0.6703   -3.3847 H   0  0  0  0  0  0  0  0  0  0  0  0
   -4.3769   -0.7464   -3.5854 H   0  0  0  0  0  0  0  0  0  0  0  0
   -2.6139   -0.9914   -3.5368 H   0  0  0  0  0  0  0  0  0  0  0  0
   -3.5577   -0.5772   -1.6216 C   0  0  0  0  0  0  0  0  0  0  0  0
   -3.7369   -1.6152   -1.2854 H   0  0  0  0  0  0  0  0  0  0  0  0
   -4.0505    0.4235   -0.7454 C   0  0  0  0  0  0  0  0  0  0  0  0
   -4.1088    1.4466   -1.1573 H   0  0  0  0  0  0  0  0  0  0  0  0
   -4.9814    0.0618    0.3882 C   0  0  0  0  0  0  0  0  0  0  0  0
   -5.1022    0.8800    1.1227 H   0  0  0  0  0  0  0  0  0  0  0  0
   -5.9839   -0.1546   -0.0402 H   0  0  0  0  0  0  0  0  0  0  0  0
   -4.6269   -0.8507    0.9069 H   0  0  0  0  0  0  0  0  0  0  0  0
   -2.3405    1.0675    0.6854 C   0  0  0  0  0  0  0  0  0  0  0  0
   -2.7503    0.6825    1.6429 H   0  0  0  0  0  0  0  0  0  0  0  0
   -2.3436    2.1697    0.5424 H   0  0  0  0  0  0  0  0  0  0  0  0
   -1.6530   -0.0520   -0.5927 Ru  0  0  0  0  0  0  0  0  0  0  0  0
   -2.1404   -1.9940    0.7383 Cl  0  0  0  0  0  0  0  0  0  0  0  0
   -1.3229    1.8404   -2.0362 Cl  0  0  0  0  0  0  0  0  0  0  0  0
    1.2631    3.3771    2.4421 C   0  0  0  0  0  0  0  0  0  0  0  0
    1.2069    2.5963    1.2713 C   0  0  0  0  0  0  0  0  0  0  0  0
    1.0685    1.1837    1.4119 C   0  0  0  0  0  0  0  0  0  0  0  0
    0.8782    0.5958    2.6984 C   0  0  0  0  0  0  0  0  0  0  0  0
    0.9484    1.4342    3.8278 C   0  0  0  0  0  0  0  0  0  0  0  0
    1.1660    2.8076    3.7123 C   0  0  0  0  0  0  0  0  0  0  0  0
    1.2363    0.3197    0.2532 N   0  0  0  0  0  0  0  0  0  0  0  0
    2.6452   -0.1266   -0.1465 C   0  0  0  0  0  0  0  0  0  0  0  0
    2.3521   -0.7852   -1.5020 C   0  0  0  0  0  0  0  0  0  0  0  0
    0.9047   -1.3052   -1.4117 C   0  0  0  0  0  0  0  0  0  0  0  0
    0.2688   -0.2784   -0.4599 C   0  0  0  0  0  0  0  0  0  0  0  0
    0.2207   -1.4487   -2.7672 C   0  0  0  0  0  0  0  0  0  0  0  0
   -0.3618   -2.7223   -2.9204 C   0  0  0  0  0  0  0  0  0  0  0  0
   -0.2326   -3.5366   -1.6606 C   0  0  0  0  0  0  0  0  0  0  0  0
    0.7910   -2.7563   -0.8055 C   0  0  0  0  0  0  0  0  0  0  0  0
    0.2065   -0.5226   -3.8219 C   0  0  0  0  0  0  0  0  0  0  0  0
   -0.3740   -0.8920   -5.0444 C   0  0  0  0  0  0  0  0  0  0  0  0
   -0.9428   -2.1688   -5.2058 C   0  0  0  0  0  0  0  0  0  0  0  0
   -0.9504   -3.0854   -4.1420 C   0  0  0  0  0  0  0  0  0  0  0  0
    3.2144   -1.1021    0.8887 C   0  0  0  0  0  0  0  0  0  0  0  0
    3.6021    1.0520   -0.2960 C   0  0  0  0  0  0  0  0  0  0  0  0
    0.5168   -0.8659    2.9504 C   0  0  0  0  0  0  0  0  0  0  0  0
    1.5341   -1.6008    3.8427 C   0  0  0  0  0  0  0  0  0  0  0  0
    1.2127    3.3485   -0.0570 C   0  0  0  0  0  0  0  0  0  0  0  0
   -0.0397    4.2428   -0.1492 C   0  0  0  0  0  0  0  0  0  0  0  0
   -0.8686   -0.9481    3.6206 C   0  0  0  0  0  0  0  0  0  0  0  0
    2.4566    4.2381   -0.2452 C   0  0  0  0  0  0  0  0  0  0  0  0
    3.0711   -1.5901   -1.7451 H   0  0  0  0  0  0  0  0  0  0  0  0
    2.4134   -0.0173   -2.2980 H   0  0  0  0  0  0  0  0  0  0  0  0
    0.4829   -2.7377    0.2564 H   0  0  0  0  0  0  0  0  0  0  0  0
    1.7910   -3.2292   -0.8704 H   0  0  0  0  0  0  0  0  0  0  0  0
   -1.2076   -3.5831   -1.1308 H   0  0  0  0  0  0  0  0  0  0  0  0
    0.0913   -4.5778   -1.8599 H   0  0  0  0  0  0  0  0  0  0  0  0
   -1.3989   -4.0822   -4.2680 H   0  0  0  0  0  0  0  0  0  0  0  0
   -1.3909   -2.4483   -6.1707 H   0  0  0  0  0  0  0  0  0  0  0  0
   -0.3902   -0.1751   -5.8776 H   0  0  0  0  0  0  0  0  0  0  0  0
    0.6252    0.4838   -3.6888 H   0  0  0  0  0  0  0  0  0  0  0  0
    2.5561   -1.9725    1.0553 H   0  0  0  0  0  0  0  0  0  0  0  0
    3.3698   -0.5869    1.8552 H   0  0  0  0  0  0  0  0  0  0  0  0
    4.1996   -1.4704    0.5403 H   0  0  0  0  0  0  0  0  0  0  0  0
    3.2532    1.7609   -1.0669 H   0  0  0  0  0  0  0  0  0  0  0  0
    4.5915    0.6635   -0.6099 H   0  0  0  0  0  0  0  0  0  0  0  0
    3.7374    1.5938    0.6596 H   0  0  0  0  0  0  0  0  0  0  0  0
    0.8180    0.9889    4.8243 H   0  0  0  0  0  0  0  0  0  0  0  0
    1.3796    4.4657    2.3448 H   0  0  0  0  0  0  0  0  0  0  0  0
    1.2317    3.4379    4.6112 H   0  0  0  0  0  0  0  0  0  0  0  0
    0.4384   -1.3847    1.9760 H   0  0  0  0  0  0  0  0  0  0  0  0
   -1.1919   -2.0045    3.6965 H   0  0  0  0  0  0  0  0  0  0  0  0
   -1.6347   -0.4158    3.0308 H   0  0  0  0  0  0  0  0  0  0  0  0
   -0.8406   -0.5174    4.6430 H   0  0  0  0  0  0  0  0  0  0  0  0
    1.2343   -2.6620    3.9597 H   0  0  0  0  0  0  0  0  0  0  0  0
    1.5648   -1.1560    4.8587 H   0  0  0  0  0  0  0  0  0  0  0  0
    2.5630   -1.5797    3.4400 H   0  0  0  0  0  0  0  0  0  0  0  0
    1.1474    2.6098   -0.8799 H   0  0  0  0  0  0  0  0  0  0  0  0
    2.4425    4.6964   -1.2549 H   0  0  0  0  0  0  0  0  0  0  0  0
    3.4092    3.6895   -0.1302 H   0  0  0  0  0  0  0  0  0  0  0  0
    2.4644    5.0706    0.4883 H   0  0  0  0  0  0  0  0  0  0  0  0
   -0.9657    3.6551   -0.0258 H   0  0  0  0  0  0  0  0  0  0  0  0
   -0.0907    4.7223   -1.1469 H   0  0  0  0  0  0  0  0  0  0  0  0
   -0.0118    5.0434    0.6190 H   0  0  0  0  0  0  0  0  0  0  0  0
  1  2  1  0  0  0  0
  1  5  1  0  0  0  0
  3  1  1  0  0  0  0
  4  1  1  0  0  0  0
  5  6  1  0  0  0  0
  5 16  1  0  0  0  0
  5  7  1  0  0  0  0
  7  9  1  0  0  0  0
  7  8  1  0  0  0  0
  9 10  1  0  0  0  0
 11  9  1  0  0  0  0
 12  9  1  0  0  0  0
 13 14  1  0  0  0  0
 13 15  1  0  0  0  0
 13  7  1  0  0  0  0
 16 13  1  0  0  0  0
 16 17  1  0  0  0  0
 16 18  1  0  0  0  0
 19 20  2  0  0  0  0
 19 24  1  0  0  0  0
 19 63  1  0  0  0  0
 20 21  1  0  0  0  0
 20 42  1  0  0  0  0
 21 22  2  0  0  0  0
 21 25  1  0  0  0  0
 22 23  1  0  0  0  0
 22 40  1  0  0  0  0
 23 24  2  0  0  0  0
 23 62  1  0  0  0  0
 24 64  1  0  0  0  0
 25 26  1  0  0  0  0
 25 29  1  0  0  0  0
 26 27  1  0  0  0  0
 26 38  1  0  0  0  0
 26 39  1  0  0  0  0
 27 28  1  0  0  0  0
 27 46  1  0  0  0  0
 27 47  1  0  0  0  0
 28 29  1  0  0  0  0
 28 30  1  0  0  0  0
 28 33  1  0  0  0  0
 30 31  2  0  0  0  0
 30 34  1  0  0  0  0
 31 32  1  0  0  0  0
 31 37  1  0  0  0  0
 32 33  1  0  0  0  0
 32 50  1  0  0  0  0
 32 51  1  0  0  0  0
 33 48  1  0  0  0  0
 33 49  1  0  0  0  0
 34 35  2  0  0  0  0
 34 55  1  0  0  0  0
 35 36  1  0  0  0  0
 35 54  1  0  0  0  0
 36 37  2  0  0  0  0
 36 53  1  0  0  0  0
 37 52  1  0  0  0  0
 38 56  1  0  0  0  0
 38 57  1  0  0  0  0
 38 58  1  0  0  0  0
 39 59  1  0  0  0  0
 39 60  1  0  0  0  0
 39 61  1  0  0  0  0
 40 41  1  0  0  0  0
 40 44  1  0  0  0  0
 40 65  1  0  0  0  0
 41 69  1  0  0  0  0
 41 70  1  0  0  0  0
 41 71  1  0  0  0  0
 42 43  1  0  0  0  0
 42 45  1  0  0  0  0
 42 72  1  0  0  0  0
 43 76  1  0  0  0  0
 43 77  1  0  0  0  0
 43 78  1  0  0  0  0
 44 66  1  0  0  0  0
 44 67  1  0  0  0  0
 44 68  1  0  0  0  0
 45 73  1  0  0  0  0
 45 74  1  0  0  0  0
 45 75  1  0  0  0  0
 16 29  1  0  0  0  0
M  END
>  <DFT-ENERGY>
-2275.21416777

$$$$
