
  CDK     07262400243D

 65 69  0  0  0  0  0  0  0  0999 V2000
   -1.1419    3.2031    0.6494 H   0  0  0  0  0  0  0  0  0  0  0  0
   -2.3584    3.0915    0.5019 C   0  0  0  0  0  0  0  0  0  0  0  0
   -2.4113    4.2027    0.4669 H   0  0  0  0  0  0  0  0  0  0  0  0
   -2.4040    2.2302   -0.7170 C   0  0  0  0  0  0  0  0  0  0  0  0
   -3.2838    1.5786   -0.8499 H   0  0  0  0  0  0  0  0  0  0  0  0
   -1.9986    2.6677   -1.6459 H   0  0  0  0  0  0  0  0  0  0  0  0
   -1.0076    1.4361    0.5726 Ru  0  0  0  0  0  0  0  0  0  0  0  0
   -2.6163    2.3197    1.7220 C   0  0  0  0  0  0  0  0  0  0  0  0
   -3.4676    1.6296    1.7570 H   0  0  0  0  0  0  0  0  0  0  0  0
   -2.3217    2.7770    2.6823 H   0  0  0  0  0  0  0  0  0  0  0  0
   -2.5083   -0.4523    0.9135 Cl  0  0  0  0  0  0  0  0  0  0  0  0
    0.8494    2.7855   -0.1265 Cl  0  0  0  0  0  0  0  0  0  0  0  0
    0.1419   -0.1897    0.0230 C   0  0  0  0  0  0  0  0  0  0  0  0
    0.7394   -1.1029    0.8493 N   0  0  0  0  0  0  0  0  0  0  0  0
    1.4928   -2.0403    0.1233 C   0  0  0  0  0  0  0  0  0  0  0  0
    1.3563   -1.6986   -1.2025 C   0  0  0  0  0  0  0  0  0  0  0  0
    0.5322   -0.5596   -1.2361 N   0  0  0  0  0  0  0  0  0  0  0  0
    2.2582   -3.1292    0.7896 C   0  0  0  0  0  0  0  0  0  0  0  0
    2.9352   -2.7246    1.5697 H   0  0  0  0  0  0  0  0  0  0  0  0
    2.8721   -3.6746    0.0491 H   0  0  0  0  0  0  0  0  0  0  0  0
    1.5891   -3.8602    1.2876 H   0  0  0  0  0  0  0  0  0  0  0  0
    1.8939   -2.3238   -2.4418 C   0  0  0  0  0  0  0  0  0  0  0  0
    2.4373   -3.2548   -2.1954 H   0  0  0  0  0  0  0  0  0  0  0  0
    2.5917   -1.6483   -2.9772 H   0  0  0  0  0  0  0  0  0  0  0  0
    1.0795   -2.5764   -3.1511 H   0  0  0  0  0  0  0  0  0  0  0  0
    0.1809    0.1378   -2.4473 C   0  0  0  0  0  0  0  0  0  0  0  0
    1.1115    1.0258   -3.0227 C   0  0  0  0  0  0  0  0  0  0  0  0
   -1.0746   -0.1285   -3.0413 C   0  0  0  0  0  0  0  0  0  0  0  0
    0.7194    1.7196   -4.1831 C   0  0  0  0  0  0  0  0  0  0  0  0
   -0.5399    1.5339   -4.7727 C   0  0  0  0  0  0  0  0  0  0  0  0
    1.4276    2.4319   -4.6345 H   0  0  0  0  0  0  0  0  0  0  0  0
   -1.4137    0.5918   -4.1972 C   0  0  0  0  0  0  0  0  0  0  0  0
   -2.3916    0.4015   -4.6667 H   0  0  0  0  0  0  0  0  0  0  0  0
   -0.9564    2.3227   -5.9888 C   0  0  0  0  0  0  0  0  0  0  0  0
   -1.4713    1.6819   -6.7325 H   0  0  0  0  0  0  0  0  0  0  0  0
   -0.0888    2.7995   -6.4839 H   0  0  0  0  0  0  0  0  0  0  0  0
   -1.6671    3.1304   -5.7121 H   0  0  0  0  0  0  0  0  0  0  0  0
   -1.9998   -1.1680   -2.4741 C   0  0  0  0  0  0  0  0  0  0  0  0
   -2.3406   -0.9014   -1.4510 H   0  0  0  0  0  0  0  0  0  0  0  0
   -1.4897   -2.1502   -2.3815 H   0  0  0  0  0  0  0  0  0  0  0  0
   -2.8851   -1.3015   -3.1236 H   0  0  0  0  0  0  0  0  0  0  0  0
    2.5024    1.2155   -2.4745 C   0  0  0  0  0  0  0  0  0  0  0  0
    2.7817    2.2858   -2.4864 H   0  0  0  0  0  0  0  0  0  0  0  0
    3.2422    0.6720   -3.1022 H   0  0  0  0  0  0  0  0  0  0  0  0
    2.5965    0.8600   -1.4341 H   0  0  0  0  0  0  0  0  0  0  0  0
    0.6407   -1.0684    2.2854 C   0  0  0  0  0  0  0  0  0  0  0  0
   -0.2212   -1.9664    2.9484 C   0  0  0  0  0  0  0  0  0  0  0  0
    1.4561   -0.1480    2.9867 C   0  0  0  0  0  0  0  0  0  0  0  0
   -0.3106   -1.8672    4.3488 C   0  0  0  0  0  0  0  0  0  0  0  0
    0.4317   -0.9277    5.0809 C   0  0  0  0  0  0  0  0  0  0  0  0
   -0.9905   -2.5507    4.8810 H   0  0  0  0  0  0  0  0  0  0  0  0
    1.3228   -0.0914    4.3835 C   0  0  0  0  0  0  0  0  0  0  0  0
    1.9481    0.6215    4.9433 H   0  0  0  0  0  0  0  0  0  0  0  0
   -1.0005   -3.0357    2.2278 C   0  0  0  0  0  0  0  0  0  0  0  0
   -2.0596   -3.0217    2.5483 H   0  0  0  0  0  0  0  0  0  0  0  0
   -0.5904   -4.0397    2.4714 H   0  0  0  0  0  0  0  0  0  0  0  0
   -0.9906   -2.8976    1.1335 H   0  0  0  0  0  0  0  0  0  0  0  0
    0.2770   -0.8097    6.5763 C   0  0  0  0  0  0  0  0  0  0  0  0
   -0.4333    0.0045    6.8351 H   0  0  0  0  0  0  0  0  0  0  0  0
    1.2401   -0.5681    7.0681 H   0  0  0  0  0  0  0  0  0  0  0  0
   -0.1166   -1.7437    7.0218 H   0  0  0  0  0  0  0  0  0  0  0  0
    2.4667    0.7101    2.2730 C   0  0  0  0  0  0  0  0  0  0  0  0
    3.0752    0.1107    1.5643 H   0  0  0  0  0  0  0  0  0  0  0  0
    3.1516    1.1875    2.9984 H   0  0  0  0  0  0  0  0  0  0  0  0
    1.9899    1.5108    1.6691 H   0  0  0  0  0  0  0  0  0  0  0  0
  1  2  1  0  0  0  0
  1  7  1  0  0  0  0
  2  3  1  0  0  0  0
  2  4  1  0  0  0  0
  4  5  1  0  0  0  0
  6  4  1  0  0  0  0
  7  8  1  0  0  0  0
  7  4  1  0  0  0  0
  8  2  1  0  0  0  0
  8  9  1  0  0  0  0
 10  8  1  0  0  0  0
  7 11  1  0  0  0  0
  7 12  1  0  0  0  0
 13 14  1  0  0  0  0
 14 15  1  0  0  0  0
 15 16  2  0  0  0  0
 16 17  1  0  0  0  0
 13 17  1  0  0  0  0
 18 19  1  0  0  0  0
 18 20  1  0  0  0  0
 18 21  1  0  0  0  0
 15 18  1  0  0  0  0
 22 23  1  0  0  0  0
 22 24  1  0  0  0  0
 22 25  1  0  0  0  0
 16 22  1  0  0  0  0
 26 27  1  0  0  0  0
 26 28  2  0  0  0  0
 27 29  2  0  0  0  0
 29 30  1  0  0  0  0
 29 31  1  0  0  0  0
 30 32  2  0  0  0  0
 32 33  1  0  0  0  0
 28 32  1  0  0  0  0
 17 26  1  0  0  0  0
 34 35  1  0  0  0  0
 34 36  1  0  0  0  0
 34 37  1  0  0  0  0
 30 34  1  0  0  0  0
 38 39  1  0  0  0  0
 38 40  1  0  0  0  0
 38 41  1  0  0  0  0
 28 38  1  0  0  0  0
 42 43  1  0  0  0  0
 42 44  1  0  0  0  0
 42 45  1  0  0  0  0
 27 42  1  0  0  0  0
 46 47  1  0  0  0  0
 46 48  2  0  0  0  0
 47 49  2  0  0  0  0
 49 50  1  0  0  0  0
 49 51  1  0  0  0  0
 50 52  2  0  0  0  0
 52 53  1  0  0  0  0
 48 52  1  0  0  0  0
 14 46  1  0  0  0  0
 54 55  1  0  0  0  0
 54 56  1  0  0  0  0
 54 57  1  0  0  0  0
 47 54  1  0  0  0  0
 58 59  1  0  0  0  0
 58 60  1  0  0  0  0
 58 61  1  0  0  0  0
 50 58  1  0  0  0  0
 62 63  1  0  0  0  0
 62 64  1  0  0  0  0
 62 65  1  0  0  0  0
 48 62  1  0  0  0  0
  7 13  1  0  0  0  0
M  END
>  <DFT-ENERGY>
-2134.20852222

$$$$
