dPhSIMesCyclohexyl-5_A1
  CDK     08162410223D

 92 98  0  0  0  0  0  0  0  0999 V2000
    1.7178   -0.4776   -0.7237 Ru  0  0  0  0  0  0  0  0  0  0  0  0
    3.4956   -0.4776   -2.1129 O   0  0  0  0  0  0  0  0  0  0  0  0
    2.9280   -1.4109    0.2804 C   0  0  0  0  0  0  0  0  0  0  0  0
    2.6952   -1.7038    1.3031 H   0  0  0  0  0  0  0  0  0  0  0  0
    3.7311    0.2976   -3.3387 C   0  0  0  0  0  0  0  0  0  0  0  0
    4.1469   -0.4013   -4.0953 H   0  0  0  0  0  0  0  0  0  0  0  0
    2.3105    0.7351   -3.6665 C   0  0  0  0  0  0  0  0  0  0  0  0
    1.9204    1.4268   -2.8925 H   0  0  0  0  0  0  0  0  0  0  0  0
    1.6309   -0.1408   -3.6873 H   0  0  0  0  0  0  0  0  0  0  0  0
    2.2510    1.2397   -4.6343 H   0  0  0  0  0  0  0  0  0  0  0  0
    4.6640    1.4467   -3.0018 C   0  0  0  0  0  0  0  0  0  0  0  0
    4.6601    2.2184   -3.7779 H   0  0  0  0  0  0  0  0  0  0  0  0
    5.6981    1.1212   -2.8472 H   0  0  0  0  0  0  0  0  0  0  0  0
    4.3405    1.9304   -2.0583 H   0  0  0  0  0  0  0  0  0  0  0  0
    4.4878   -1.2760   -1.6079 C   0  0  0  0  0  0  0  0  0  0  0  0
    5.6569   -1.6247   -2.2609 C   0  0  0  0  0  0  0  0  0  0  0  0
    5.8760   -1.2743   -3.2668 H   0  0  0  0  0  0  0  0  0  0  0  0
    6.5581   -2.4558   -1.6034 C   0  0  0  0  0  0  0  0  0  0  0  0
    7.4807   -2.7434   -2.1122 H   0  0  0  0  0  0  0  0  0  0  0  0
    6.3081   -2.9274   -0.3181 C   0  0  0  0  0  0  0  0  0  0  0  0
    7.0328   -3.5721    0.1763 H   0  0  0  0  0  0  0  0  0  0  0  0
    5.1384   -2.5671    0.3235 C   0  0  0  0  0  0  0  0  0  0  0  0
    4.9452   -2.9217    1.3348 H   0  0  0  0  0  0  0  0  0  0  0  0
    4.2029   -1.7517   -0.3159 C   0  0  0  0  0  0  0  0  0  0  0  0
    2.3198    1.7229   -0.1612 Cl  0  0  0  0  0  0  0  0  0  0  0  0
    0.9011   -2.1703   -2.0724 Cl  0  0  0  0  0  0  0  0  0  0  0  0
    0.1117   -0.3793    0.4133 C   0  0  0  0  0  0  0  0  0  0  0  0
   -0.1667   -0.7292    1.7244 N   0  0  0  0  0  0  0  0  0  0  0  0
   -1.5424   -0.3072    2.1850 C   0  0  0  0  0  0  0  0  0  0  0  0
   -2.0504    0.5603    0.9828 C   0  0  0  0  0  0  0  0  0  0  0  0
   -1.0282    0.2770   -0.0802 N   0  0  0  0  0  0  0  0  0  0  0  0
   -1.4260    0.3248    3.1051 H   0  0  0  0  0  0  0  0  0  0  0  0
   -3.0552    0.2114    0.6321 H   0  0  0  0  0  0  0  0  0  0  0  0
    0.6746   -1.4122    2.6749 C   0  0  0  0  0  0  0  0  0  0  0  0
    2.0988   -2.7280    4.6991 C   0  0  0  0  0  0  0  0  0  0  0  0
    0.8121   -2.8199    2.6302 C   0  0  0  0  0  0  0  0  0  0  0  0
    1.3290   -0.6551    3.6786 C   0  0  0  0  0  0  0  0  0  0  0  0
    2.0217   -1.3267    4.6912 C   0  0  0  0  0  0  0  0  0  0  0  0
    1.5150   -3.4623    3.6594 C   0  0  0  0  0  0  0  0  0  0  0  0
    2.5122   -0.7561    5.4767 H   0  0  0  0  0  0  0  0  0  0  0  0
    1.6052   -4.5466    3.6450 H   0  0  0  0  0  0  0  0  0  0  0  0
    2.8237   -3.4217    5.8062 C   0  0  0  0  0  0  0  0  0  0  0  0
    3.8900   -3.1518    5.8126 H   0  0  0  0  0  0  0  0  0  0  0  0
    2.7684   -4.5157    5.7329 H   0  0  0  0  0  0  0  0  0  0  0  0
    2.4137   -3.1436    6.7879 H   0  0  0  0  0  0  0  0  0  0  0  0
    0.2679   -3.6115    1.4910 C   0  0  0  0  0  0  0  0  0  0  0  0
    0.4805   -3.1236    0.5154 H   0  0  0  0  0  0  0  0  0  0  0  0
   -0.8248   -3.7207    1.5625 H   0  0  0  0  0  0  0  0  0  0  0  0
    0.6915   -4.6219    1.4304 H   0  0  0  0  0  0  0  0  0  0  0  0
    1.3162    0.8361    3.6333 C   0  0  0  0  0  0  0  0  0  0  0  0
    0.3038    1.2479    3.7503 H   0  0  0  0  0  0  0  0  0  0  0  0
    1.6960    1.1957    2.6542 H   0  0  0  0  0  0  0  0  0  0  0  0
    1.9479    1.2940    4.4045 H   0  0  0  0  0  0  0  0  0  0  0  0
   -1.2503    0.6663   -1.5062 C   0  0  0  0  0  0  0  0  0  0  0  0
   -2.8816    0.6857   -3.4303 C   0  0  0  0  0  0  0  0  0  0  0  0
   -1.1714    2.5402   -3.1974 C   0  0  0  0  0  0  0  0  0  0  0  0
   -2.5828    2.1710   -3.6755 C   0  0  0  0  0  0  0  0  0  0  0  0
   -0.9606    2.1652   -1.7253 C   0  0  0  0  0  0  0  0  0  0  0  0
   -2.6871    0.3132   -1.9538 C   0  0  0  0  0  0  0  0  0  0  0  0
   -2.2256    0.0583   -4.0660 H   0  0  0  0  0  0  0  0  0  0  0  0
   -0.4160    2.0330   -3.8288 H   0  0  0  0  0  0  0  0  0  0  0  0
   -3.3302    2.7957   -3.1494 H   0  0  0  0  0  0  0  0  0  0  0  0
   -1.6132    2.7854   -1.0811 H   0  0  0  0  0  0  0  0  0  0  0  0
   -3.4303    0.8518   -1.3359 H   0  0  0  0  0  0  0  0  0  0  0  0
   -0.5343    0.0563   -2.1395 H   0  0  0  0  0  0  0  0  0  0  0  0
   -3.9174    0.4513   -3.7397 H   0  0  0  0  0  0  0  0  0  0  0  0
   -0.9993    3.6253   -3.3300 H   0  0  0  0  0  0  0  0  0  0  0  0
   -2.6904    2.4049   -4.7510 H   0  0  0  0  0  0  0  0  0  0  0  0
    0.0805    2.3950   -1.4101 H   0  0  0  0  0  0  0  0  0  0  0  0
   -2.8739   -0.7678   -1.8093 H   0  0  0  0  0  0  0  0  0  0  0  0
   -2.4473   -1.4842    2.4754 C   0  0  0  0  0  0  0  0  0  0  0  0
   -4.1680   -3.6214    3.0551 C   0  0  0  0  0  0  0  0  0  0  0  0
   -2.8561   -1.7227    3.7954 C   0  0  0  0  0  0  0  0  0  0  0  0
   -2.8964   -2.3282    1.4483 C   0  0  0  0  0  0  0  0  0  0  0  0
   -3.7548   -3.3912    1.7387 C   0  0  0  0  0  0  0  0  0  0  0  0
   -3.7149   -2.7881    4.0819 C   0  0  0  0  0  0  0  0  0  0  0  0
   -2.5026   -1.0839    4.6039 H   0  0  0  0  0  0  0  0  0  0  0  0
   -2.5638   -2.1626    0.4219 H   0  0  0  0  0  0  0  0  0  0  0  0
   -4.1004   -4.0432    0.9374 H   0  0  0  0  0  0  0  0  0  0  0  0
   -4.0290   -2.9691    5.1088 H   0  0  0  0  0  0  0  0  0  0  0  0
   -4.8380   -4.4496    3.2793 H   0  0  0  0  0  0  0  0  0  0  0  0
   -2.1259    2.0205    1.3815 C   0  0  0  0  0  0  0  0  0  0  0  0
   -2.3264    4.6953    2.1946 C   0  0  0  0  0  0  0  0  0  0  0  0
   -0.9714    2.8059    1.5094 C   0  0  0  0  0  0  0  0  0  0  0  0
   -3.3816    2.5801    1.6610 C   0  0  0  0  0  0  0  0  0  0  0  0
   -3.4789    3.9139    2.0669 C   0  0  0  0  0  0  0  0  0  0  0  0
   -1.0742    4.1395    1.9133 C   0  0  0  0  0  0  0  0  0  0  0  0
    0.0118    2.3819    1.2725 H   0  0  0  0  0  0  0  0  0  0  0  0
   -4.2851    1.9804    1.5647 H   0  0  0  0  0  0  0  0  0  0  0  0
   -4.4553    4.3446    2.2826 H   0  0  0  0  0  0  0  0  0  0  0  0
   -0.1734    4.7462    2.0041 H   0  0  0  0  0  0  0  0  0  0  0  0
   -2.4036    5.7343    2.5093 H   0  0  0  0  0  0  0  0  0  0  0  0
  1  2  1  0  0  0  0
  1  3  2  0  0  0  0
  3  4  1  0  0  0  0
  2  5  1  0  0  0  0
  5  6  1  0  0  0  0
  5  7  1  0  0  0  0
  7  8  1  0  0  0  0
  7  9  1  0  0  0  0
  7 10  1  0  0  0  0
  5 11  1  0  0  0  0
 11 12  1  0  0  0  0
 11 13  1  0  0  0  0
 11 14  1  0  0  0  0
  2 15  1  0  0  0  0
 15 24  1  0  0  0  0
 15 16  2  0  0  0  0
 16 17  1  0  0  0  0
 16 18  1  0  0  0  0
 18 19  1  0  0  0  0
 18 20  2  0  0  0  0
 20 21  1  0  0  0  0
 20 22  1  0  0  0  0
 22 24  2  0  0  0  0
 22 23  1  0  0  0  0
  3 24  1  0  0  0  0
  1 25  1  0  0  0  0
  1 26  1  0  0  0  0
 27 28  1  0  0  0  0
 27 31  1  0  0  0  0
 28 29  1  0  0  0  0
 29 32  1  0  0  0  0
 30 31  1  0  0  0  0
 29 30  1  0  0  0  0
 30 33  1  0  0  0  0
  1 27  1  0  0  0  0
 34 37  2  0  0  0  0
 34 36  1  0  0  0  0
 35 38  2  0  0  0  0
 35 39  1  0  0  0  0
 36 39  2  0  0  0  0
 37 38  1  0  0  0  0
 38 40  1  0  0  0  0
 39 41  1  0  0  0  0
 28 34  1  0  0  0  0
 42 43  1  0  0  0  0
 42 44  1  0  0  0  0
 42 45  1  0  0  0  0
 35 42  1  0  0  0  0
 46 47  1  0  0  0  0
 46 48  1  0  0  0  0
 46 49  1  0  0  0  0
 36 46  1  0  0  0  0
 50 51  1  0  0  0  0
 50 52  1  0  0  0  0
 50 53  1  0  0  0  0
 37 50  1  0  0  0  0
 54 65  1  0  0  0  0
 54 58  1  0  0  0  0
 54 59  1  0  0  0  0
 55 60  1  0  0  0  0
 55 66  1  0  0  0  0
 55 57  1  0  0  0  0
 55 59  1  0  0  0  0
 56 61  1  0  0  0  0
 56 67  1  0  0  0  0
 56 58  1  0  0  0  0
 56 57  1  0  0  0  0
 57 62  1  0  0  0  0
 57 68  1  0  0  0  0
 58 63  1  0  0  0  0
 58 69  1  0  0  0  0
 59 64  1  0  0  0  0
 59 70  1  0  0  0  0
 31 54  1  0  0  0  0
 71 74  2  0  0  0  0
 71 73  1  0  0  0  0
 72 75  2  0  0  0  0
 72 76  1  0  0  0  0
 72 81  1  0  0  0  0
 73 76  2  0  0  0  0
 73 77  1  0  0  0  0
 74 75  1  0  0  0  0
 74 78  1  0  0  0  0
 75 79  1  0  0  0  0
 76 80  1  0  0  0  0
 29 71  1  0  0  0  0
 82 85  2  0  0  0  0
 82 84  1  0  0  0  0
 83 86  2  0  0  0  0
 83 87  1  0  0  0  0
 83 92  1  0  0  0  0
 84 87  2  0  0  0  0
 84 88  1  0  0  0  0
 85 86  1  0  0  0  0
 85 89  1  0  0  0  0
 86 90  1  0  0  0  0
 87 91  1  0  0  0  0
 30 82  1  0  0  0  0
M  END
> <FrozenCore-PM6_ENERGY>
116.264

> <RMSD_CONF_CG-CS>
0.403121

> <RMSD_CONF_GO-CS>
0.000000

> <UID>


> <DESCRIPTOR_DEFINITION_1>
desc1=( echo "1 * ( e( $hartree_to_kcalmol * ( ( $freeEnergyZ - $freeEnergyD ) - ( $freeEnergyX + 2*$G_Ethene - $freeEnergyD - 2*$G_Propene ) - $DDG_reference_HGII ) / $kT ) ) " | bc -l )

> <DESCRIPTOR_DEFINITION_2>
desc1=( echo "1 * ( e( $hartree_to_kcalmol * ( ( $freeEnergyZ - $freeEnergyD ) - ( $freeEnergyX + 2*$G_Ethene - $freeEnergyD - 2*$G_Propene ) - $DDG_reference_HGII ) / $kT ) ) " | bc -l )

> <DESCRIPTOR_DEFINITION_3>
desc1=( echo "1 * ( e( $hartree_to_kcalmol * ( ( $freeEnergyZ - $freeEnergyD ) - ( $freeEnergyX + 2*$G_Ethene - $freeEnergyD - 2*$G_Propene ) - $DDG_reference_HGII ) / $kT ) ) " | bc -l )

> <WEIGHT_DEFINITION_1>
w1=$( echo "1 / ( 1 + e( $hartree_to_kcalmol * ( ( ( $freeEnergyX + 2*$G_Ethene - $freeEnergyD - 2*$G_Propene ) ) - ( $DG_referenceProductionBarrier + $magnitude4 ) ) / $kT ) )" | bc -l )

> <WEIGHT_DEFINITION_2>
w1=$( echo "1 / ( 1 + e( $hartree_to_kcalmol * ( ( ( $freeEnergyX + 2*$G_Ethene - $freeEnergyD - 2*$G_Propene ) ) - ( $DG_referenceProductionBarrier + $magnitude4 ) ) / $kT ) )" | bc -l )

> <WEIGHT_DEFINITION_3>
w1=$( echo "1 / ( 1 + e( $hartree_to_kcalmol * ( ( ( $freeEnergyX + 2*$G_Ethene - $freeEnergyD - 2*$G_Propene ) ) - ( $DG_referenceProductionBarrier + $magnitude4 ) ) / $kT ) )" | bc -l )

> <WEIGHT_DEFINITION_4>
w1=$( echo "1 / ( 1 + e( $hartree_to_kcalmol * ( ( ( $freeEnergyX + 2*$G_Ethene - $freeEnergyD - 2*$G_Propene ) ) - ( $DG_referenceProductionBarrier + $magnitude4 ) ) / $kT ) )" | bc -l )

> <CALCULATION_OF_OVERALL_FITNESS>
fitness=$( echo "( $desc1 + $desc2 + $desc3 ) * ( $w1 * $w2 * $w3 * $w4 )" | bc -l )

> <freeEnergyA>
-2749.53182036

> <freeEnergyF>
-2749.5139385

> <freeEnergyE>
-2749.53182036

> <freeEnergyC>
-2404.27185933

> <freeEnergyL>
-1271.6602359

> <freeEnergyX>
-2482.80576476

> <freeEnergyZ>
-2404.25746495

> <freeEnergyD>
-2404.29783949

> <G_Propene>
-117.738020895

> <G_Ethene>
-78.4716324751

> <G_HoveydaProd>
-502.204109499

> <G_SIMes>
-924.27249048

> <G_HG_RuCl2_SIMes>
-2402.13728523

> <DG_referenceProductionBarrier>
0.01468968

> <DG_referencePrecursorStabilityHII>
-0.0052201621

> <DG_referencePrecursorStabilityHI>
0.0117775312

> <DDG_referencePrecursorStability>
.0169976933

> <DG_referenceSynt>
0.0226072217

> <hartree_to_kcalmol>
627.49467516

> <boltzmann_constant>
0.0000000000000000000000138066

> <avogadro_number>
602214000000000000000000

> <jmol_to_kcalmol>
0.00023901

> <temp>
313.15

> <kT>
.6223089948281258706000000000

> <magnitude1>
1.43290809

> <magnitude2>
2.86581618

> <magnitude3>
4.29872427

> <magnitude4>
5.73163236

> <DFT_IDENTIFIER>
1723817073077

> <DFT_MACHINE>
158.39.114.73

> <XTB_IDENTIFIER>
NREC

> <XTB_MACHINE>
NREC

> <DESCRIPTOR_1>
.00115434496471531627

> <DESCRIPTOR_2>
9.740581143167360232

> <DESCRIPTOR_3>
0.0000000001

> <WEIGHT_1>
.99865312757617795086

> <WEIGHT_2>
.99999971452783056032

> <WEIGHT_3>
.99999999999998661258

> <WEIGHT_4>
.99999852335308155659

> <FITNESS>
9.72859747036926908441

$$$$
