
  CDK     08162415043D

 78 83  0  0  0  0  0  0  0  0999 V2000
    2.2488   -1.2232   -0.0735 Ru  0  0  0  0  0  0  0  0  0  0  0  0
    3.7774   -1.0483   -1.2783 C   0  0  0  0  0  0  0  0  0  0  0  0
    3.6010   -1.4007   -2.3106 H   0  0  0  0  0  0  0  0  0  0  0  0
    4.2708   -2.1907   -0.2996 C   0  0  0  0  0  0  0  0  0  0  0  0
    4.4281   -3.0924   -0.9186 H   0  0  0  0  0  0  0  0  0  0  0  0
    3.2829   -2.6052    0.8635 C   0  0  0  0  0  0  0  0  0  0  0  0
    3.6556   -2.3264    1.8655 H   0  0  0  0  0  0  0  0  0  0  0  0
    2.8993   -3.6358    0.7562 H   0  0  0  0  0  0  0  0  0  0  0  0
    5.1843   -1.8078    0.1905 H   0  0  0  0  0  0  0  0  0  0  0  0
    4.3518   -0.1097   -1.1768 H   0  0  0  0  0  0  0  0  0  0  0  0
    1.3085   -2.9443   -1.4450 Cl  0  0  0  0  0  0  0  0  0  0  0  0
    3.1897    0.3713    1.4443 Cl  0  0  0  0  0  0  0  0  0  0  0  0
    0.4699   -0.3675    0.0823 C   0  0  0  0  0  0  0  0  0  0  0  0
   -0.1106    0.3971   -0.8682 N   0  0  0  0  0  0  0  0  0  0  0  0
   -1.4156    0.9412   -0.3862 C   0  0  0  0  0  0  0  0  0  0  0  0
   -1.7079    0.0056    0.8276 C   0  0  0  0  0  0  0  0  0  0  0  0
   -0.3602   -0.5152    1.1351 N   0  0  0  0  0  0  0  0  0  0  0  0
   -2.1773    0.7897   -1.1753 H   0  0  0  0  0  0  0  0  0  0  0  0
   -2.0841    0.6095    1.6750 H   0  0  0  0  0  0  0  0  0  0  0  0
    0.5061    0.7653   -2.1146 C   0  0  0  0  0  0  0  0  0  0  0  0
    1.7185    1.4037   -4.5812 C   0  0  0  0  0  0  0  0  0  0  0  0
    1.5063    1.7670   -2.1529 C   0  0  0  0  0  0  0  0  0  0  0  0
    0.0725    0.1089   -3.2960 C   0  0  0  0  0  0  0  0  0  0  0  0
    0.6874    0.4493   -4.5096 C   0  0  0  0  0  0  0  0  0  0  0  0
    2.1054    2.0471   -3.3974 C   0  0  0  0  0  0  0  0  0  0  0  0
    0.3587   -0.0641   -5.4268 H   0  0  0  0  0  0  0  0  0  0  0  0
    2.8964    2.8124   -3.4338 H   0  0  0  0  0  0  0  0  0  0  0  0
    2.3849    1.7152   -5.8974 C   0  0  0  0  0  0  0  0  0  0  0  0
    2.9614    0.8416   -6.2678 H   0  0  0  0  0  0  0  0  0  0  0  0
    3.0844    2.5682   -5.8095 H   0  0  0  0  0  0  0  0  0  0  0  0
    1.6381    1.9609   -6.6800 H   0  0  0  0  0  0  0  0  0  0  0  0
    1.9173    2.5742   -0.9513 C   0  0  0  0  0  0  0  0  0  0  0  0
    1.8763    2.0033   -0.0072 H   0  0  0  0  0  0  0  0  0  0  0  0
    1.2632    3.4648   -0.8466 H   0  0  0  0  0  0  0  0  0  0  0  0
    2.9572    2.9341   -1.0698 H   0  0  0  0  0  0  0  0  0  0  0  0
   -0.9800   -0.9644   -3.2632 C   0  0  0  0  0  0  0  0  0  0  0  0
   -1.8875   -0.6650   -2.7026 H   0  0  0  0  0  0  0  0  0  0  0  0
   -0.5696   -1.8672   -2.7640 H   0  0  0  0  0  0  0  0  0  0  0  0
   -1.2875   -1.2408   -4.2892 H   0  0  0  0  0  0  0  0  0  0  0  0
    0.0190   -1.2631    2.3447 C   0  0  0  0  0  0  0  0  0  0  0  0
   -0.1232   -1.3973    4.8514 C   0  0  0  0  0  0  0  0  0  0  0  0
    0.3497   -3.4776    3.4847 C   0  0  0  0  0  0  0  0  0  0  0  0
   -0.2926   -2.9200    4.7621 C   0  0  0  0  0  0  0  0  0  0  0  0
   -0.2052   -2.7810    2.2359 C   0  0  0  0  0  0  0  0  0  0  0  0
   -0.6589   -0.6937    3.5954 C   0  0  0  0  0  0  0  0  0  0  0  0
    0.9562   -1.1529    4.9655 H   0  0  0  0  0  0  0  0  0  0  0  0
    1.4519   -3.3241    3.5289 H   0  0  0  0  0  0  0  0  0  0  0  0
   -1.3783   -3.1679    4.7607 H   0  0  0  0  0  0  0  0  0  0  0  0
   -1.2917   -2.9894    2.1407 H   0  0  0  0  0  0  0  0  0  0  0  0
   -1.7589   -0.8502    3.5259 H   0  0  0  0  0  0  0  0  0  0  0  0
    1.1128   -1.0750    2.4420 H   0  0  0  0  0  0  0  0  0  0  0  0
   -0.6340   -0.9995    5.7523 H   0  0  0  0  0  0  0  0  0  0  0  0
    0.1875   -4.5724    3.4116 H   0  0  0  0  0  0  0  0  0  0  0  0
    0.1407   -3.4061    5.6607 H   0  0  0  0  0  0  0  0  0  0  0  0
    0.2803   -3.1629    1.3140 H   0  0  0  0  0  0  0  0  0  0  0  0
   -0.4810    0.4002    3.6597 H   0  0  0  0  0  0  0  0  0  0  0  0
   -1.3119    2.4159   -0.0633 C   0  0  0  0  0  0  0  0  0  0  0  0
   -1.0123    5.1748    0.4306 C   0  0  0  0  0  0  0  0  0  0  0  0
   -1.7499    3.3610   -1.0074 C   0  0  0  0  0  0  0  0  0  0  0  0
   -0.7193    2.8655    1.1334 C   0  0  0  0  0  0  0  0  0  0  0  0
   -0.5754    4.2364    1.3802 C   0  0  0  0  0  0  0  0  0  0  0  0
   -1.5984    4.7346   -0.7655 C   0  0  0  0  0  0  0  0  0  0  0  0
   -2.2048    3.0128   -1.9472 H   0  0  0  0  0  0  0  0  0  0  0  0
   -0.3332    2.1390    1.8632 H   0  0  0  0  0  0  0  0  0  0  0  0
   -0.1059    4.5752    2.3148 H   0  0  0  0  0  0  0  0  0  0  0  0
   -1.9410    5.4634   -1.5142 H   0  0  0  0  0  0  0  0  0  0  0  0
   -0.8935    6.2507    0.6237 H   0  0  0  0  0  0  0  0  0  0  0  0
   -2.7137   -1.0837    0.5019 C   0  0  0  0  0  0  0  0  0  0  0  0
   -4.6405   -3.0204   -0.1851 C   0  0  0  0  0  0  0  0  0  0  0  0
   -2.3446   -2.2119   -0.2561 C   0  0  0  0  0  0  0  0  0  0  0  0
   -4.0493   -0.9380    0.9169 C   0  0  0  0  0  0  0  0  0  0  0  0
   -5.0107   -1.9013    0.5756 C   0  0  0  0  0  0  0  0  0  0  0  0
   -3.3066   -3.1723   -0.5974 C   0  0  0  0  0  0  0  0  0  0  0  0
   -1.2987   -2.3550   -0.5679 H   0  0  0  0  0  0  0  0  0  0  0  0
   -4.3380   -0.0601    1.5161 H   0  0  0  0  0  0  0  0  0  0  0  0
   -6.0509   -1.7796    0.9110 H   0  0  0  0  0  0  0  0  0  0  0  0
   -3.0056   -4.0503   -1.1870 H   0  0  0  0  0  0  0  0  0  0  0  0
   -5.3908   -3.7791   -0.4509 H   0  0  0  0  0  0  0  0  0  0  0  0
  2  4  1  0  0  0  0
  2  1  1  0  0  0  0
  2  3  1  0  0  0  0
  4  6  1  0  0  0  0
  4  5  1  0  0  0  0
  6  1  1  0  0  0  0
  6  8  1  0  0  0  0
  7  6  1  0  0  0  0
  9  4  1  0  0  0  0
 10  2  1  0  0  0  0
  1 11  1  0  0  0  0
  1 12  1  0  0  0  0
 13 14  1  0  0  0  0
 13 17  1  0  0  0  0
 14 15  1  0  0  0  0
 15 18  1  0  0  0  0
 16 17  1  0  0  0  0
 15 16  1  0  0  0  0
 16 19  1  0  0  0  0
 20 23  2  0  0  0  0
 20 22  1  0  0  0  0
 21 24  2  0  0  0  0
 21 25  1  0  0  0  0
 22 25  2  0  0  0  0
 23 24  1  0  0  0  0
 24 26  1  0  0  0  0
 25 27  1  0  0  0  0
 14 20  1  0  0  0  0
 28 29  1  0  0  0  0
 28 30  1  0  0  0  0
 28 31  1  0  0  0  0
 21 28  1  0  0  0  0
 32 33  1  0  0  0  0
 32 34  1  0  0  0  0
 32 35  1  0  0  0  0
 22 32  1  0  0  0  0
 36 37  1  0  0  0  0
 36 38  1  0  0  0  0
 36 39  1  0  0  0  0
 23 36  1  0  0  0  0
 40 51  1  0  0  0  0
 40 44  1  0  0  0  0
 40 45  1  0  0  0  0
 41 46  1  0  0  0  0
 41 52  1  0  0  0  0
 41 43  1  0  0  0  0
 41 45  1  0  0  0  0
 42 47  1  0  0  0  0
 42 53  1  0  0  0  0
 42 44  1  0  0  0  0
 42 43  1  0  0  0  0
 43 48  1  0  0  0  0
 43 54  1  0  0  0  0
 44 49  1  0  0  0  0
 44 55  1  0  0  0  0
 45 50  1  0  0  0  0
 45 56  1  0  0  0  0
 17 40  1  0  0  0  0
 57 60  2  0  0  0  0
 57 59  1  0  0  0  0
 58 61  2  0  0  0  0
 58 62  1  0  0  0  0
 58 67  1  0  0  0  0
 59 62  2  0  0  0  0
 59 63  1  0  0  0  0
 60 61  1  0  0  0  0
 60 64  1  0  0  0  0
 61 65  1  0  0  0  0
 62 66  1  0  0  0  0
 15 57  1  0  0  0  0
 68 71  2  0  0  0  0
 68 70  1  0  0  0  0
 69 72  2  0  0  0  0
 69 73  1  0  0  0  0
 69 78  1  0  0  0  0
 70 73  2  0  0  0  0
 70 74  1  0  0  0  0
 71 72  1  0  0  0  0
 71 75  1  0  0  0  0
 72 76  1  0  0  0  0
 73 77  1  0  0  0  0
 16 68  1  0  0  0  0
  1 13  1  0  0  0  0
M  END
>  <DFT-ENERGY>
-2404.29783958

$$$$
