DIPP5CAAC-2_A1
  CDK     08122419513D

 78 81  0  0  0  0  0  0  0  0999 V2000
    0.4389    0.7618   -1.4465 Ru  0  0  0  0  0  0  0  0  0  0  0  0
    2.2167    0.7618   -2.8357 O   0  0  0  0  0  0  0  0  0  0  0  0
    1.6491   -0.1715   -0.4424 C   0  0  0  0  0  0  0  0  0  0  0  0
    1.4163   -0.4644    0.5803 H   0  0  0  0  0  0  0  0  0  0  0  0
    2.4522    1.5370   -4.0615 C   0  0  0  0  0  0  0  0  0  0  0  0
    2.8700    0.8407   -4.8194 H   0  0  0  0  0  0  0  0  0  0  0  0
    1.0287    1.9671   -4.3888 C   0  0  0  0  0  0  0  0  0  0  0  0
    0.6401    2.6713   -3.6273 H   0  0  0  0  0  0  0  0  0  0  0  0
    0.3506    1.0887   -4.3908 H   0  0  0  0  0  0  0  0  0  0  0  0
    0.9621    2.4526   -5.3659 H   0  0  0  0  0  0  0  0  0  0  0  0
    3.3813    2.6903   -3.7281 C   0  0  0  0  0  0  0  0  0  0  0  0
    3.3792    3.4558   -4.5106 H   0  0  0  0  0  0  0  0  0  0  0  0
    4.4153    2.3671   -3.5682 H   0  0  0  0  0  0  0  0  0  0  0  0
    3.0542    3.1806   -2.7901 H   0  0  0  0  0  0  0  0  0  0  0  0
    3.2089   -0.0366   -2.3307 C   0  0  0  0  0  0  0  0  0  0  0  0
    4.3780   -0.3854   -2.9837 C   0  0  0  0  0  0  0  0  0  0  0  0
    4.5967   -0.0348   -3.9897 H   0  0  0  0  0  0  0  0  0  0  0  0
    5.2792   -1.2164   -2.3262 C   0  0  0  0  0  0  0  0  0  0  0  0
    6.2019   -1.5039   -2.8350 H   0  0  0  0  0  0  0  0  0  0  0  0
    5.0292   -1.6880   -1.0409 C   0  0  0  0  0  0  0  0  0  0  0  0
    5.7542   -2.3325   -0.5466 H   0  0  0  0  0  0  0  0  0  0  0  0
    3.8595   -1.3277   -0.3993 C   0  0  0  0  0  0  0  0  0  0  0  0
    3.6663   -1.6823    0.6120 H   0  0  0  0  0  0  0  0  0  0  0  0
    2.9240   -0.5123   -1.0387 C   0  0  0  0  0  0  0  0  0  0  0  0
    1.0332    2.9341   -0.8913 Cl  0  0  0  0  0  0  0  0  0  0  0  0
   -0.4041   -0.9854   -2.8386 Cl  0  0  0  0  0  0  0  0  0  0  0  0
   -1.1566    0.6722   -0.3443 C   0  0  0  0  0  0  0  0  0  0  0  0
   -2.3799    1.4603   -0.8939 C   0  0  0  0  0  0  0  0  0  0  0  0
   -1.5596    0.0157    0.7753 N   0  0  0  0  0  0  0  0  0  0  0  0
   -0.7319   -0.7964    1.6549 C   0  0  0  0  0  0  0  0  0  0  0  0
    0.6757   -2.3861    3.4827 C   0  0  0  0  0  0  0  0  0  0  0  0
   -0.1246   -0.1950    2.7874 C   0  0  0  0  0  0  0  0  0  0  0  0
   -0.5677   -2.1785    1.3991 C   0  0  0  0  0  0  0  0  0  0  0  0
    0.1238   -2.9593    2.3396 C   0  0  0  0  0  0  0  0  0  0  0  0
    0.5702   -1.0105    3.6907 C   0  0  0  0  0  0  0  0  0  0  0  0
    0.2379   -4.0291    2.1623 H   0  0  0  0  0  0  0  0  0  0  0  0
    1.0422   -0.5626    4.5655 H   0  0  0  0  0  0  0  0  0  0  0  0
    1.2029   -3.0074    4.2056 H   0  0  0  0  0  0  0  0  0  0  0  0
   -3.0484    0.1600    1.1233 C   0  0  0  0  0  0  0  0  0  0  0  0
   -3.4949    1.3030    0.1802 C   0  0  0  0  0  0  0  0  0  0  0  0
   -3.6340    2.2452    0.7382 H   0  0  0  0  0  0  0  0  0  0  0  0
   -4.4722    1.0909   -0.2816 H   0  0  0  0  0  0  0  0  0  0  0  0
   -3.2527    0.5259    2.5938 C   0  0  0  0  0  0  0  0  0  0  0  0
   -2.8802   -0.2576    3.2670 H   0  0  0  0  0  0  0  0  0  0  0  0
   -4.3159    0.6680    2.8178 H   0  0  0  0  0  0  0  0  0  0  0  0
   -2.7312    1.4562    2.8615 H   0  0  0  0  0  0  0  0  0  0  0  0
   -3.7878   -1.1429    0.8036 C   0  0  0  0  0  0  0  0  0  0  0  0
   -3.4110   -1.9878    1.4009 H   0  0  0  0  0  0  0  0  0  0  0  0
   -3.6799   -1.4247   -0.2527 H   0  0  0  0  0  0  0  0  0  0  0  0
   -4.8591   -1.0512    1.0110 H   0  0  0  0  0  0  0  0  0  0  0  0
   -2.0269    2.9375   -1.0846 C   0  0  0  0  0  0  0  0  0  0  0  0
   -2.9185    3.5427   -1.2787 H   0  0  0  0  0  0  0  0  0  0  0  0
   -1.3500    3.0878   -1.9429 H   0  0  0  0  0  0  0  0  0  0  0  0
   -1.5199    3.3576   -0.2036 H   0  0  0  0  0  0  0  0  0  0  0  0
   -2.8175    0.8521   -2.2314 C   0  0  0  0  0  0  0  0  0  0  0  0
   -2.0723    1.0385   -3.0243 H   0  0  0  0  0  0  0  0  0  0  0  0
   -3.7638    1.2785   -2.5786 H   0  0  0  0  0  0  0  0  0  0  0  0
   -2.9407   -0.2382   -2.1687 H   0  0  0  0  0  0  0  0  0  0  0  0
   -0.1381    1.3080    3.0191 C   0  0  0  0  0  0  0  0  0  0  0  0
   -0.9697    1.7735    2.4239 H   0  0  0  0  0  0  0  0  0  0  0  0
   -1.0530   -2.8498    0.1244 C   0  0  0  0  0  0  0  0  0  0  0  0
   -1.5864   -2.1002   -0.5224 H   0  0  0  0  0  0  0  0  0  0  0  0
    0.1463   -3.3524   -0.6890 C   0  0  0  0  0  0  0  0  0  0  0  0
   -0.1821   -3.7367   -1.6641 H   0  0  0  0  0  0  0  0  0  0  0  0
    0.7074   -4.1399   -0.1822 H   0  0  0  0  0  0  0  0  0  0  0  0
    0.8395   -2.5252   -0.9170 H   0  0  0  0  0  0  0  0  0  0  0  0
   -2.0247   -3.9932    0.4465 C   0  0  0  0  0  0  0  0  0  0  0  0
   -1.5282   -4.8220    0.9620 H   0  0  0  0  0  0  0  0  0  0  0  0
   -2.4607   -4.4002   -0.4732 H   0  0  0  0  0  0  0  0  0  0  0  0
   -2.8476   -3.6487    1.0863 H   0  0  0  0  0  0  0  0  0  0  0  0
    1.1829    1.8987    2.5147 C   0  0  0  0  0  0  0  0  0  0  0  0
    1.2101    2.9869    2.6424 H   0  0  0  0  0  0  0  0  0  0  0  0
    1.3134    1.7112    1.4333 H   0  0  0  0  0  0  0  0  0  0  0  0
    2.0520    1.4806    3.0304 H   0  0  0  0  0  0  0  0  0  0  0  0
   -0.3799    1.6633    4.4926 C   0  0  0  0  0  0  0  0  0  0  0  0
   -1.2571    1.1462    4.8949 H   0  0  0  0  0  0  0  0  0  0  0  0
   -0.5408    2.7410    4.6103 H   0  0  0  0  0  0  0  0  0  0  0  0
    0.4764    1.3994    5.1241 H   0  0  0  0  0  0  0  0  0  0  0  0
  2  1  1  0  0  0  0
  3  1  2  0  0  0  0
  4  3  1  0  0  0  0
  5  2  1  0  0  0  0
  6  5  1  0  0  0  0
  7  5  1  0  0  0  0
  8  7  1  0  0  0  0
  9  7  1  0  0  0  0
 10  7  1  0  0  0  0
 11  5  1  0  0  0  0
 12 11  1  0  0  0  0
 13 11  1  0  0  0  0
 14 11  1  0  0  0  0
 15  2  1  0  0  0  0
 15 24  1  0  0  0  0
 16 15  2  0  0  0  0
 17 16  1  0  0  0  0
 18 16  1  0  0  0  0
 19 18  1  0  0  0  0
 20 18  2  0  0  0  0
 21 20  1  0  0  0  0
 22 20  1  0  0  0  0
 22 24  2  0  0  0  0
 23 22  1  0  0  0  0
 24  3  1  0  0  0  0
  1 25  1  0  0  0  0
  1 26  1  0  0  0  0
 27 28  1  0  0  0  0
 27 29  1  0  0  0  0
 30 33  2  0  0  0  0
 33 34  1  0  0  0  0
 31 34  2  0  0  0  0
 31 35  1  0  0  0  0
 32 35  2  0  0  0  0
 30 32  1  0  0  0  0
 34 36  1  0  0  0  0
 35 37  1  0  0  0  0
 31 38  1  0  0  0  0
 29 30  1  0  0  0  0
 29 39  1  0  0  0  0
 28 40  1  0  0  0  0
 39 40  1  0  0  0  0
 40 41  1  0  0  0  0
 40 42  1  0  0  0  0
 43 44  1  0  0  0  0
 43 45  1  0  0  0  0
 43 46  1  0  0  0  0
 39 43  1  0  0  0  0
 47 48  1  0  0  0  0
 47 49  1  0  0  0  0
 47 50  1  0  0  0  0
 39 47  1  0  0  0  0
 51 52  1  0  0  0  0
 51 53  1  0  0  0  0
 51 54  1  0  0  0  0
 28 51  1  0  0  0  0
 55 56  1  0  0  0  0
 55 57  1  0  0  0  0
 55 58  1  0  0  0  0
 28 55  1  0  0  0  0
 59 60  1  0  0  0  0
 32 59  1  0  0  0  0
 61 62  1  0  0  0  0
 33 61  1  0  0  0  0
 63 64  1  0  0  0  0
 63 65  1  0  0  0  0
 63 66  1  0  0  0  0
 61 63  1  0  0  0  0
 67 68  1  0  0  0  0
 67 69  1  0  0  0  0
 67 70  1  0  0  0  0
 61 67  1  0  0  0  0
 71 72  1  0  0  0  0
 71 73  1  0  0  0  0
 71 74  1  0  0  0  0
 59 71  1  0  0  0  0
 75 76  1  0  0  0  0
 75 77  1  0  0  0  0
 75 78  1  0  0  0  0
 59 75  1  0  0  0  0
  1 27  1  0  0  0  0
M  END
> <FrozenCore-PM6_ENERGY>
-182.004

> <RMSD_CONF_CG-CS>
0.536803

> <RMSD_CONF_GO-CS>
0.000000

> <UID>


> <DESCRIPTOR_DEFINITION_1>
desc1=( echo "1 * ( e( $hartree_to_kcalmol * ( ( $freeEnergyZ - $freeEnergyD ) - ( $freeEnergyX + 2*$G_Ethene - $freeEnergyD - 2*$G_Propene ) - $DDG_reference_HGII ) / $kT ) ) " | bc -l )

> <DESCRIPTOR_DEFINITION_2>
desc1=( echo "1 * ( e( $hartree_to_kcalmol * ( ( $freeEnergyZ - $freeEnergyD ) - ( $freeEnergyX + 2*$G_Ethene - $freeEnergyD - 2*$G_Propene ) - $DDG_reference_HGII ) / $kT ) ) " | bc -l )

> <DESCRIPTOR_DEFINITION_3>
desc1=( echo "1 * ( e( $hartree_to_kcalmol * ( ( $freeEnergyZ - $freeEnergyD ) - ( $freeEnergyX + 2*$G_Ethene - $freeEnergyD - 2*$G_Propene ) - $DDG_reference_HGII ) / $kT ) ) " | bc -l )

> <WEIGHT_DEFINITION_1>
w1=$( echo "1 / ( 1 + e( $hartree_to_kcalmol * ( ( ( $freeEnergyX + 2*$G_Ethene - $freeEnergyD - 2*$G_Propene ) ) - ( $DG_referenceProductionBarrier + $magnitude4 ) ) / $kT ) )" | bc -l )

> <WEIGHT_DEFINITION_2>
w1=$( echo "1 / ( 1 + e( $hartree_to_kcalmol * ( ( ( $freeEnergyX + 2*$G_Ethene - $freeEnergyD - 2*$G_Propene ) ) - ( $DG_referenceProductionBarrier + $magnitude4 ) ) / $kT ) )" | bc -l )

> <WEIGHT_DEFINITION_3>
w1=$( echo "1 / ( 1 + e( $hartree_to_kcalmol * ( ( ( $freeEnergyX + 2*$G_Ethene - $freeEnergyD - 2*$G_Propene ) ) - ( $DG_referenceProductionBarrier + $magnitude4 ) ) / $kT ) )" | bc -l )

> <WEIGHT_DEFINITION_4>
w1=$( echo "1 / ( 1 + e( $hartree_to_kcalmol * ( ( ( $freeEnergyX + 2*$G_Ethene - $freeEnergyD - 2*$G_Propene ) ) - ( $DG_referenceProductionBarrier + $magnitude4 ) ) / $kT ) )" | bc -l )

> <CALCULATION_OF_OVERALL_FITNESS>
fitness=$( echo "( $desc1 + $desc2 + $desc3 ) * ( $w1 * $w2 * $w3 * $w4 )" | bc -l )

> <freeEnergyA>
-2312.33408668

> <freeEnergyF>
-2312.31264672

> <freeEnergyE>
-2312.33408668

> <freeEnergyC>
-1967.07538286

> <freeEnergyL>
-834.463844437

> <freeEnergyX>
-2045.60300562

> <freeEnergyZ>
-1967.04663286

> <freeEnergyD>
-1967.09670491

> <G_Propene>
-117.738020895

> <G_Ethene>
-78.4716324751

> <G_HoveydaProd>
-502.204109499

> <G_SIMes>
-924.27249048

> <G_HG_RuCl2_SIMes>
-2402.13728523

> <DG_referenceProductionBarrier>
0.01468968

> <DG_referencePrecursorStabilityHII>
-0.0052201621

> <DG_referencePrecursorStabilityHI>
0.0117775312

> <DDG_referencePrecursorStability>
.0169976933

> <DG_referenceSynt>
0.0226072217

> <hartree_to_kcalmol>
627.49467516

> <boltzmann_constant>
0.0000000000000000000000138066

> <avogadro_number>
602214000000000000000000

> <jmol_to_kcalmol>
0.00023901

> <temp>
313.15

> <kT>
.6223089948281258706000000000

> <magnitude1>
1.43290809

> <magnitude2>
2.86581618

> <magnitude3>
4.29872427

> <magnitude4>
5.73163236

> <DFT_IDENTIFIER>
1723559159607

> <DFT_MACHINE>
158.39.114.73

> <XTB_IDENTIFIER>
NREC

> <XTB_MACHINE>
NREC

> <DESCRIPTOR_1>
3.95903140290601569536

> <DESCRIPTOR_2>
14.806314281000282232

> <DESCRIPTOR_3>
0.0000000001

> <WEIGHT_1>
.99310832039330585807

> <WEIGHT_2>
.99999991964466717545

> <WEIGHT_3>
.99999999999994818305

> <WEIGHT_4>
.99999995915513512269

> <FITNESS>
18.63601867515293973570

$$$$
