
  CDK     08132405483D

 70 72  0  0  0  0  0  0  0  0999 V2000
   -1.5247    4.0461   -2.8129 C   0  0  0  0  0  0  0  0  0  0  0  0
   -0.4757    4.2217   -3.1080 H   0  0  0  0  0  0  0  0  0  0  0  0
   -2.1368    4.9412   -3.0635 H   0  0  0  0  0  0  0  0  0  0  0  0
   -1.9161    3.2101   -3.4265 H   0  0  0  0  0  0  0  0  0  0  0  0
   -1.6619    3.7752   -1.3329 C   0  0  0  0  0  0  0  0  0  0  0  0
   -2.6933    3.6051   -0.9712 H   0  0  0  0  0  0  0  0  0  0  0  0
   -0.7842    4.3361   -0.3656 C   0  0  0  0  0  0  0  0  0  0  0  0
    0.1618    4.7511   -0.7564 H   0  0  0  0  0  0  0  0  0  0  0  0
   -1.3148    4.8915    0.9341 C   0  0  0  0  0  0  0  0  0  0  0  0
   -0.5155    5.0830    1.6742 H   0  0  0  0  0  0  0  0  0  0  0  0
   -1.8148    5.8612    0.7212 H   0  0  0  0  0  0  0  0  0  0  0  0
   -2.0674    4.2060    1.3714 H   0  0  0  0  0  0  0  0  0  0  0  0
    0.3965    2.6139    0.6472 C   0  0  0  0  0  0  0  0  0  0  0  0
    0.0291    2.6814    1.6927 H   0  0  0  0  0  0  0  0  0  0  0  0
    1.4332    2.9634    0.4496 H   0  0  0  0  0  0  0  0  0  0  0  0
   -0.6493    1.9123   -0.6883 Ru  0  0  0  0  0  0  0  0  0  0  0  0
   -2.5576    1.6383    0.7619 Cl  0  0  0  0  0  0  0  0  0  0  0  0
    1.1194    2.3198   -2.2509 Cl  0  0  0  0  0  0  0  0  0  0  0  0
   -0.5906   -0.0223   -0.8658 C   0  0  0  0  0  0  0  0  0  0  0  0
   -1.3761   -0.5947   -2.0572 C   0  0  0  0  0  0  0  0  0  0  0  0
   -0.1008   -1.0252   -0.1274 N   0  0  0  0  0  0  0  0  0  0  0  0
    0.8668   -0.9204    0.9539 C   0  0  0  0  0  0  0  0  0  0  0  0
    2.7742   -1.1393    3.0121 C   0  0  0  0  0  0  0  0  0  0  0  0
    0.4320   -0.9769    2.3104 C   0  0  0  0  0  0  0  0  0  0  0  0
    2.2557   -0.8666    0.6335 C   0  0  0  0  0  0  0  0  0  0  0  0
    3.1832   -0.9964    1.6854 C   0  0  0  0  0  0  0  0  0  0  0  0
    1.4123   -1.0972    3.3145 C   0  0  0  0  0  0  0  0  0  0  0  0
    4.2564   -0.9722    1.4493 H   0  0  0  0  0  0  0  0  0  0  0  0
    1.0890   -1.1509    4.3637 H   0  0  0  0  0  0  0  0  0  0  0  0
    3.5184   -1.2532    3.8139 H   0  0  0  0  0  0  0  0  0  0  0  0
   -0.5451   -2.4125   -0.6004 C   0  0  0  0  0  0  0  0  0  0  0  0
   -1.6600   -2.0388   -1.5955 C   0  0  0  0  0  0  0  0  0  0  0  0
   -2.6361   -2.0665   -1.0717 H   0  0  0  0  0  0  0  0  0  0  0  0
   -1.7059   -2.7484   -2.4438 H   0  0  0  0  0  0  0  0  0  0  0  0
   -1.0962   -3.2507    0.5515 C   0  0  0  0  0  0  0  0  0  0  0  0
   -0.3204   -3.4581    1.3130 H   0  0  0  0  0  0  0  0  0  0  0  0
   -1.4410   -4.2222    0.1442 H   0  0  0  0  0  0  0  0  0  0  0  0
   -1.9571   -2.7577    1.0363 H   0  0  0  0  0  0  0  0  0  0  0  0
    0.6226   -3.1727   -1.2381 C   0  0  0  0  0  0  0  0  0  0  0  0
    1.4147   -3.3630   -0.4889 H   0  0  0  0  0  0  0  0  0  0  0  0
    1.0683   -2.6310   -2.0902 H   0  0  0  0  0  0  0  0  0  0  0  0
    0.2596   -4.1536   -1.6037 H   0  0  0  0  0  0  0  0  0  0  0  0
   -2.6688    0.1875   -2.3408 C   0  0  0  0  0  0  0  0  0  0  0  0
   -3.2146   -0.2863   -3.1819 H   0  0  0  0  0  0  0  0  0  0  0  0
   -2.4436    1.2304   -2.6524 H   0  0  0  0  0  0  0  0  0  0  0  0
   -3.3220    0.2374   -1.4505 H   0  0  0  0  0  0  0  0  0  0  0  0
   -0.4833   -0.5527   -3.3184 C   0  0  0  0  0  0  0  0  0  0  0  0
   -0.2258    0.4893   -3.5861 H   0  0  0  0  0  0  0  0  0  0  0  0
   -1.0292   -1.0278   -4.1593 H   0  0  0  0  0  0  0  0  0  0  0  0
    0.4716   -1.0926   -3.1784 H   0  0  0  0  0  0  0  0  0  0  0  0
   -1.0148   -0.8217    2.7709 C   0  0  0  0  0  0  0  0  0  0  0  0
   -1.6630   -0.7360    1.8773 H   0  0  0  0  0  0  0  0  0  0  0  0
    2.8217   -0.5874   -0.7564 C   0  0  0  0  0  0  0  0  0  0  0  0
    1.9806   -0.4468   -1.4625 H   0  0  0  0  0  0  0  0  0  0  0  0
    3.6159    0.7332   -0.7304 C   0  0  0  0  0  0  0  0  0  0  0  0
    3.9279    1.0092   -1.7566 H   0  0  0  0  0  0  0  0  0  0  0  0
    4.5265    0.6354   -0.1036 H   0  0  0  0  0  0  0  0  0  0  0  0
    3.0020    1.5652   -0.3439 H   0  0  0  0  0  0  0  0  0  0  0  0
    3.7435   -1.7070   -1.2739 C   0  0  0  0  0  0  0  0  0  0  0  0
    4.6432   -1.8081   -0.6324 H   0  0  0  0  0  0  0  0  0  0  0  0
    4.0970   -1.4618   -2.2959 H   0  0  0  0  0  0  0  0  0  0  0  0
    3.2496   -2.6951   -1.3105 H   0  0  0  0  0  0  0  0  0  0  0  0
   -1.1644    0.4922    3.5628 C   0  0  0  0  0  0  0  0  0  0  0  0
   -2.2279    0.6587    3.8253 H   0  0  0  0  0  0  0  0  0  0  0  0
   -0.8379    1.3608    2.9652 H   0  0  0  0  0  0  0  0  0  0  0  0
   -0.5741    0.4592    4.5022 H   0  0  0  0  0  0  0  0  0  0  0  0
   -1.4990   -1.9836    3.6587 C   0  0  0  0  0  0  0  0  0  0  0  0
   -1.3726   -2.9750    3.1862 H   0  0  0  0  0  0  0  0  0  0  0  0
   -2.5736   -1.8514    3.8982 H   0  0  0  0  0  0  0  0  0  0  0  0
   -0.9516   -2.0041    4.6236 H   0  0  0  0  0  0  0  0  0  0  0  0
  1  2  1  0  0  0  0
  1  5  1  0  0  0  0
  3  1  1  0  0  0  0
  4  1  1  0  0  0  0
  5  6  1  0  0  0  0
  5 16  1  0  0  0  0
  5  7  1  0  0  0  0
  7  9  1  0  0  0  0
  7  8  1  0  0  0  0
  9 10  1  0  0  0  0
 11  9  1  0  0  0  0
 12  9  1  0  0  0  0
 13 14  1  0  0  0  0
 13 15  1  0  0  0  0
 13  7  1  0  0  0  0
 16 13  1  0  0  0  0
 16 17  1  0  0  0  0
 16 18  1  0  0  0  0
 19 20  1  0  0  0  0
 19 21  1  0  0  0  0
 22 25  2  0  0  0  0
 25 26  1  0  0  0  0
 23 26  2  0  0  0  0
 23 27  1  0  0  0  0
 24 27  2  0  0  0  0
 22 24  1  0  0  0  0
 26 28  1  0  0  0  0
 27 29  1  0  0  0  0
 23 30  1  0  0  0  0
 21 22  1  0  0  0  0
 21 31  1  0  0  0  0
 20 32  1  0  0  0  0
 31 32  1  0  0  0  0
 32 33  1  0  0  0  0
 32 34  1  0  0  0  0
 35 36  1  0  0  0  0
 35 37  1  0  0  0  0
 35 38  1  0  0  0  0
 31 35  1  0  0  0  0
 39 40  1  0  0  0  0
 39 41  1  0  0  0  0
 39 42  1  0  0  0  0
 31 39  1  0  0  0  0
 43 44  1  0  0  0  0
 43 45  1  0  0  0  0
 43 46  1  0  0  0  0
 20 43  1  0  0  0  0
 47 48  1  0  0  0  0
 47 49  1  0  0  0  0
 47 50  1  0  0  0  0
 20 47  1  0  0  0  0
 51 52  1  0  0  0  0
 24 51  1  0  0  0  0
 53 54  1  0  0  0  0
 25 53  1  0  0  0  0
 55 56  1  0  0  0  0
 55 57  1  0  0  0  0
 55 58  1  0  0  0  0
 53 55  1  0  0  0  0
 59 60  1  0  0  0  0
 59 61  1  0  0  0  0
 59 62  1  0  0  0  0
 53 59  1  0  0  0  0
 63 64  1  0  0  0  0
 63 65  1  0  0  0  0
 63 66  1  0  0  0  0
 51 63  1  0  0  0  0
 67 68  1  0  0  0  0
 67 69  1  0  0  0  0
 67 70  1  0  0  0  0
 51 67  1  0  0  0  0
 16 19  1  0  0  0  0
M  END
>  <DFT-ENERGY>
-2045.60300566

$$$$
