IPrP_A2
  CDK     08082415223D

 57 58  0  0  0  0  0  0  0  0999 V2000
   -0.7061   -0.3888    0.1886 Ru  0  0  0  0  0  0  0  0  0  0  0  0
   -2.4805   -0.4983   -1.2006 O   0  0  0  0  0  0  0  0  0  0  0  0
   -1.8565   -1.3949    1.1927 C   0  0  0  0  0  0  0  0  0  0  0  0
   -1.6061   -1.6729    2.2154 H   0  0  0  0  0  0  0  0  0  0  0  0
   -2.7633    0.2609   -2.4264 C   0  0  0  0  0  0  0  0  0  0  0  0
   -3.1321   -0.4579   -3.1885 H   0  0  0  0  0  0  0  0  0  0  0  0
   -1.3715    0.7875   -2.7523 C   0  0  0  0  0  0  0  0  0  0  0  0
   -1.3430    1.2890   -3.7234 H   0  0  0  0  0  0  0  0  0  0  0  0
   -1.0300    1.5085   -1.9848 H   0  0  0  0  0  0  0  0  0  0  0  0
   -0.6391   -0.0438   -2.7695 H   0  0  0  0  0  0  0  0  0  0  0  0
   -3.7679    1.3511   -2.0965 C   0  0  0  0  0  0  0  0  0  0  0  0
   -3.8154    2.1140   -2.8797 H   0  0  0  0  0  0  0  0  0  0  0  0
   -4.7781    0.9596   -1.9381 H   0  0  0  0  0  0  0  0  0  0  0  0
   -3.4756    1.8616   -1.1581 H   0  0  0  0  0  0  0  0  0  0  0  0
   -3.4217   -1.3563   -0.6956 C   0  0  0  0  0  0  0  0  0  0  0  0
   -4.5671   -1.7764   -1.3486 C   0  0  0  0  0  0  0  0  0  0  0  0
   -4.8065   -1.4399   -2.3547 H   0  0  0  0  0  0  0  0  0  0  0  0
   -5.4153   -2.6614   -0.6911 C   0  0  0  0  0  0  0  0  0  0  0  0
   -6.3185   -3.0056   -1.1998 H   0  0  0  0  0  0  0  0  0  0  0  0
   -5.1368   -3.1168    0.5942 C   0  0  0  0  0  0  0  0  0  0  0  0
   -5.8205   -3.8049    1.0883 H   0  0  0  0  0  0  0  0  0  0  0  0
   -3.9915   -2.6851    1.2358 C   0  0  0  0  0  0  0  0  0  0  0  0
   -3.7768   -3.0271    2.2471 H   0  0  0  0  0  0  0  0  0  0  0  0
   -3.1080   -1.8136    0.5964 C   0  0  0  0  0  0  0  0  0  0  0  0
   -1.4308    1.7361    0.7421 Cl  0  0  0  0  0  0  0  0  0  0  0  0
    0.2140   -2.0291   -1.1610 Cl  0  0  0  0  0  0  0  0  0  0  0  0
    0.9808   -0.3615    1.6219 P   0  0  0  0  0  0  0  0  0  0  0  0
    1.3853   -1.9777    2.5897 C   0  0  0  0  0  0  0  0  0  0  0  0
    0.6385   -2.0250    3.4267 H   0  0  0  0  0  0  0  0  0  0  0  0
    1.1632   -3.1719    1.6708 C   0  0  0  0  0  0  0  0  0  0  0  0
    0.1369   -3.2260    1.2649 H   0  0  0  0  0  0  0  0  0  0  0  0
    1.8366   -3.1870    0.7997 H   0  0  0  0  0  0  0  0  0  0  0  0
    3.3799   -0.8812    0.1102 C   0  0  0  0  0  0  0  0  0  0  0  0
    2.8142   -1.5514   -0.5607 H   0  0  0  0  0  0  0  0  0  0  0  0
    4.2126   -0.4876   -0.4888 H   0  0  0  0  0  0  0  0  0  0  0  0
    0.8020    0.9808    2.9991 C   0  0  0  0  0  0  0  0  0  0  0  0
    0.5695    1.9440    2.4632 H   0  0  0  0  0  0  0  0  0  0  0  0
    2.5306    0.2575    0.6544 C   0  0  0  0  0  0  0  0  0  0  0  0
    1.9741    1.1221   -0.4777 C   0  0  0  0  0  0  0  0  0  0  0  0
    2.7826   -1.9909    3.1964 C   0  0  0  0  0  0  0  0  0  0  0  0
    2.9550   -2.9351    3.7327 H   0  0  0  0  0  0  0  0  0  0  0  0
    3.5796   -1.9208    2.4359 H   0  0  0  0  0  0  0  0  0  0  0  0
    2.0737    1.1830    3.8114 C   0  0  0  0  0  0  0  0  0  0  0  0
    2.9201    1.5200    3.1975 H   0  0  0  0  0  0  0  0  0  0  0  0
    1.9157    1.9607    4.5733 H   0  0  0  0  0  0  0  0  0  0  0  0
   -0.3939    0.6239    3.8732 C   0  0  0  0  0  0  0  0  0  0  0  0
   -0.5806    1.4226    4.6071 H   0  0  0  0  0  0  0  0  0  0  0  0
   -0.2616   -0.2980    4.4500 H   0  0  0  0  0  0  0  0  0  0  0  0
   -1.3271    0.5479    3.2847 H   0  0  0  0  0  0  0  0  0  0  0  0
    1.3318   -4.1154    2.2067 H   0  0  0  0  0  0  0  0  0  0  0  0
    2.3902    0.2775    4.3554 H   0  0  0  0  0  0  0  0  0  0  0  0
    3.1496    0.8848    1.3419 H   0  0  0  0  0  0  0  0  0  0  0  0
    2.9381   -1.1813    3.9279 H   0  0  0  0  0  0  0  0  0  0  0  0
    2.7836    1.6868   -0.9630 H   0  0  0  0  0  0  0  0  0  0  0  0
    1.2348    1.8760   -0.1524 H   0  0  0  0  0  0  0  0  0  0  0  0
    1.5187    0.5164   -1.2889 H   0  0  0  0  0  0  0  0  0  0  0  0
    3.8239   -1.5018    0.9057 H   0  0  0  0  0  0  0  0  0  0  0  0
  1  2  1  0  0  0  0
  1  3  2  0  0  0  0
  3  4  1  0  0  0  0
  2  5  1  0  0  0  0
  5  6  1  0  0  0  0
  5  7  1  0  0  0  0
  7  8  1  0  0  0  0
  7  9  1  0  0  0  0
  7 10  1  0  0  0  0
  5 11  1  0  0  0  0
 11 12  1  0  0  0  0
 11 13  1  0  0  0  0
 11 14  1  0  0  0  0
  2 15  1  0  0  0  0
 15 24  1  0  0  0  0
 15 16  2  0  0  0  0
 16 17  1  0  0  0  0
 16 18  1  0  0  0  0
 18 19  1  0  0  0  0
 18 20  2  0  0  0  0
 20 21  1  0  0  0  0
 20 22  1  0  0  0  0
 22 24  2  0  0  0  0
 22 23  1  0  0  0  0
  3 24  1  0  0  0  0
  1 25  1  0  0  0  0
  1 26  1  0  0  0  0
 27 28  1  0  0  0  0
 27 36  1  0  0  0  0
 27 38  1  0  0  0  0
 28 29  1  0  0  0  0
 28 30  1  0  0  0  0
 28 40  1  0  0  0  0
 30 31  1  0  0  0  0
 30 32  1  0  0  0  0
 33 34  1  0  0  0  0
 33 35  1  0  0  0  0
 33 38  1  0  0  0  0
 36 37  1  0  0  0  0
 36 43  1  0  0  0  0
 36 46  1  0  0  0  0
 38 39  1  0  0  0  0
 40 41  1  0  0  0  0
 40 42  1  0  0  0  0
 43 44  1  0  0  0  0
 43 45  1  0  0  0  0
 46 47  1  0  0  0  0
 46 48  1  0  0  0  0
 46 49  1  0  0  0  0
 30 50  1  0  0  0  0
 43 51  1  0  0  0  0
 38 52  1  0  0  0  0
 40 53  1  0  0  0  0
 39 54  1  0  0  0  0
 39 55  1  0  0  0  0
 39 56  1  0  0  0  0
 33 57  1  0  0  0  0
  1 27  1  0  0  0  0
M  END
> <FrozenCore-PM6_ENERGY>
166.319

> <RMSD_CONF_CG-CS>
2.517818

> <RMSD_CONF_GO-CS>
0.000000

> <UID>


> <DESCRIPTOR_DEFINITION_1>
desc1=( echo "1 * ( e( $hartree_to_kcalmol * ( ( $freeEnergyZ - $freeEnergyD ) - ( $freeEnergyX + 2*$G_Ethene - $freeEnergyD - 2*$G_Propene ) - $DDG_reference_HGII ) / $kT ) ) " | bc -l )

> <DESCRIPTOR_DEFINITION_2>
desc1=( echo "1 * ( e( $hartree_to_kcalmol * ( ( $freeEnergyZ - $freeEnergyD ) - ( $freeEnergyX + 2*$G_Ethene - $freeEnergyD - 2*$G_Propene ) - $DDG_reference_HGII ) / $kT ) ) " | bc -l )

> <DESCRIPTOR_DEFINITION_3>
desc1=( echo "1 * ( e( $hartree_to_kcalmol * ( ( $freeEnergyZ - $freeEnergyD ) - ( $freeEnergyX + 2*$G_Ethene - $freeEnergyD - 2*$G_Propene ) - $DDG_reference_HGII ) / $kT ) ) " | bc -l )

> <WEIGHT_DEFINITION_1>
w1=$( echo "1 / ( 1 + e( $hartree_to_kcalmol * ( ( ( $freeEnergyX + 2*$G_Ethene - $freeEnergyD - 2*$G_Propene ) ) - ( $DG_referenceProductionBarrier + $magnitude4 ) ) / $kT ) )" | bc -l )

> <WEIGHT_DEFINITION_2>
w1=$( echo "1 / ( 1 + e( $hartree_to_kcalmol * ( ( ( $freeEnergyX + 2*$G_Ethene - $freeEnergyD - 2*$G_Propene ) ) - ( $DG_referenceProductionBarrier + $magnitude4 ) ) / $kT ) )" | bc -l )

> <WEIGHT_DEFINITION_3>
w1=$( echo "1 / ( 1 + e( $hartree_to_kcalmol * ( ( ( $freeEnergyX + 2*$G_Ethene - $freeEnergyD - 2*$G_Propene ) ) - ( $DG_referenceProductionBarrier + $magnitude4 ) ) / $kT ) )" | bc -l )

> <WEIGHT_DEFINITION_4>
w1=$( echo "1 / ( 1 + e( $hartree_to_kcalmol * ( ( ( $freeEnergyX + 2*$G_Ethene - $freeEnergyD - 2*$G_Propene ) ) - ( $DG_referenceProductionBarrier + $magnitude4 ) ) / $kT ) )" | bc -l )

> <CALCULATION_OF_OVERALL_FITNESS>
fitness=$( echo "( $desc1 + $desc2 + $desc3 ) * ( $w1 * $w2 * $w3 * $w4 )" | bc -l )

> <freeEnergyA>
-2174.15864992

> <freeEnergyF>
-2174.13474394

> <freeEnergyE>
-2174.15864992

> <freeEnergyC>
-1828.89397065

> <freeEnergyL>
-696.318069402

> <freeEnergyX>
-1907.42104

> <freeEnergyZ>
-1828.87332686

> <freeEnergyD>
-1828.91053612

> <G_Propene>
-117.738020895

> <G_Ethene>
-78.4716324751

> <G_HoveydaProd>
-502.204109499

> <G_SIMes>
-924.27249048

> <G_HG_RuCl2_SIMes>
-2402.13728523

> <DG_referenceProductionBarrier>
0.01468968

> <DG_referencePrecursorStabilityHII>
-0.0052201621

> <DG_referencePrecursorStabilityHI>
0.0117775312

> <DDG_referencePrecursorStability>
.0169976933

> <DG_referenceSynt>
0.0226072217

> <hartree_to_kcalmol>
627.49467516

> <boltzmann_constant>
0.0000000000000000000000138066

> <avogadro_number>
602214000000000000000000

> <jmol_to_kcalmol>
0.00023901

> <temp>
313.15

> <kT>
.6223089948281258706000000000

> <magnitude1>
1.43290809

> <magnitude2>
2.86581618

> <magnitude3>
4.29872427

> <magnitude4>
5.73163236

> <DFT_IDENTIFIER>
1723176332484

> <DFT_MACHINE>
158.39.114.73

> <XTB_IDENTIFIER>
NREC

> <XTB_MACHINE>
NREC

> <DESCRIPTOR_1>
.00063888829711305711

> <DESCRIPTOR_2>
9.372448842091243032

> <DESCRIPTOR_3>
0.0000000001

> <WEIGHT_1>
.99989984784179689159

> <WEIGHT_2>
.99996675470533538444

> <WEIGHT_3>
.66422144541904072534

> <WEIGHT_4>
.99999999660191553328

> <FITNESS>
6.22497537331433615762

$$$$
