
  CDK     07312402113D

 79 81  0  0  0  0  0  0  0  0999 V2000
   -0.1936   -4.0024   -2.5472 C   0  0  0  0  0  0  0  0  0  0  0  0
    0.8375   -3.7347   -2.8385 H   0  0  0  0  0  0  0  0  0  0  0  0
   -0.4297   -5.0187   -2.9343 H   0  0  0  0  0  0  0  0  0  0  0  0
   -0.8911   -3.3015   -3.0449 H   0  0  0  0  0  0  0  0  0  0  0  0
   -0.3758   -4.0129   -1.0465 C   0  0  0  0  0  0  0  0  0  0  0  0
   -1.4021   -4.2198   -0.6910 H   0  0  0  0  0  0  0  0  0  0  0  0
    0.6532   -4.4359   -0.1643 C   0  0  0  0  0  0  0  0  0  0  0  0
    1.6708   -4.4777   -0.5915 H   0  0  0  0  0  0  0  0  0  0  0  0
    0.3446   -5.3414    1.0052 C   0  0  0  0  0  0  0  0  0  0  0  0
    1.1768   -5.4036    1.7312 H   0  0  0  0  0  0  0  0  0  0  0  0
    0.1650   -6.3658    0.6125 H   0  0  0  0  0  0  0  0  0  0  0  0
   -0.5743   -5.0068    1.5253 H   0  0  0  0  0  0  0  0  0  0  0  0
    1.2582   -2.6634    1.2061 C   0  0  0  0  0  0  0  0  0  0  0  0
    0.8789   -3.0230    2.1863 H   0  0  0  0  0  0  0  0  0  0  0  0
    2.3578   -2.6620    1.0622 H   0  0  0  0  0  0  0  0  0  0  0  0
    0.1088   -2.0544   -0.0884 Ru  0  0  0  0  0  0  0  0  0  0  0  0
   -1.7583   -2.5711    1.3243 Cl  0  0  0  0  0  0  0  0  0  0  0  0
    1.9664   -1.7322   -1.6122 Cl  0  0  0  0  0  0  0  0  0  0  0  0
   -0.0289   -0.0821   -0.0912 C   0  0  0  0  0  0  0  0  0  0  0  0
   -0.8867    1.8315   -1.5981 C   0  0  0  0  0  0  0  0  0  0  0  0
    1.0141    2.2102    0.0149 C   0  0  0  0  0  0  0  0  0  0  0  0
   -0.3292    2.7397   -0.5110 C   0  0  0  0  0  0  0  0  0  0  0  0
    0.8062    0.7759    0.5307 N   0  0  0  0  0  0  0  0  0  0  0  0
   -1.1516    0.4279   -1.0332 C   0  0  0  0  0  0  0  0  0  0  0  0
   -0.1776    1.7764   -2.4480 H   0  0  0  0  0  0  0  0  0  0  0  0
   -1.0481    2.8375    0.3271 H   0  0  0  0  0  0  0  0  0  0  0  0
   -1.8285    2.2488   -2.0064 H   0  0  0  0  0  0  0  0  0  0  0  0
   -0.1579    3.7637   -0.9000 H   0  0  0  0  0  0  0  0  0  0  0  0
   -1.2772   -0.6370   -2.1598 C   0  0  0  0  0  0  0  0  0  0  0  0
   -2.4268    0.4748   -0.1206 C   0  0  0  0  0  0  0  0  0  0  0  0
    1.5239    3.1272    1.1297 C   0  0  0  0  0  0  0  0  0  0  0  0
    1.6872    4.1346    0.6978 H   0  0  0  0  0  0  0  0  0  0  0  0
    2.4805    2.7791    1.5572 H   0  0  0  0  0  0  0  0  0  0  0  0
    0.7986    3.2220    1.9579 H   0  0  0  0  0  0  0  0  0  0  0  0
    2.0182    2.2011   -1.1628 C   0  0  0  0  0  0  0  0  0  0  0  0
    1.8937    1.3053   -1.7998 H   0  0  0  0  0  0  0  0  0  0  0  0
    3.0625    2.2301   -0.8164 H   0  0  0  0  0  0  0  0  0  0  0  0
    1.8540    3.1054   -1.7831 H   0  0  0  0  0  0  0  0  0  0  0  0
    1.5283    0.3578    1.7379 C   0  0  0  0  0  0  0  0  0  0  0  0
    2.8237   -0.1842    4.1884 C   0  0  0  0  0  0  0  0  0  0  0  0
    2.9355    0.1323    1.7572 C   0  0  0  0  0  0  0  0  0  0  0  0
    0.7614    0.2428    2.9405 C   0  0  0  0  0  0  0  0  0  0  0  0
    1.4381   -0.0166    4.1451 C   0  0  0  0  0  0  0  0  0  0  0  0
    3.5490   -0.1284    3.0002 C   0  0  0  0  0  0  0  0  0  0  0  0
    0.8555   -0.0948    5.0721 H   0  0  0  0  0  0  0  0  0  0  0  0
    4.6355   -0.2934    3.0236 H   0  0  0  0  0  0  0  0  0  0  0  0
    3.3323   -0.3772    5.1442 H   0  0  0  0  0  0  0  0  0  0  0  0
   -0.7592    0.3559    2.9918 C   0  0  0  0  0  0  0  0  0  0  0  0
   -1.1423    0.0025    2.0189 H   0  0  0  0  0  0  0  0  0  0  0  0
    3.8642    0.1467    0.5454 C   0  0  0  0  0  0  0  0  0  0  0  0
    3.2433    0.2235   -0.3628 H   0  0  0  0  0  0  0  0  0  0  0  0
    4.8550    1.3263    0.6178 C   0  0  0  0  0  0  0  0  0  0  0  0
    5.5688    1.1912    1.4565 H   0  0  0  0  0  0  0  0  0  0  0  0
    4.3563    2.3028    0.7730 H   0  0  0  0  0  0  0  0  0  0  0  0
    5.4489    1.3901   -0.3170 H   0  0  0  0  0  0  0  0  0  0  0  0
    4.6683   -1.1589    0.4050 C   0  0  0  0  0  0  0  0  0  0  0  0
    5.3218   -1.0944   -0.4885 H   0  0  0  0  0  0  0  0  0  0  0  0
    4.0043   -2.0282    0.2502 H   0  0  0  0  0  0  0  0  0  0  0  0
    5.3189   -1.3467    1.2836 H   0  0  0  0  0  0  0  0  0  0  0  0
   -1.2364    1.7997    3.2206 C   0  0  0  0  0  0  0  0  0  0  0  0
   -0.9441    2.4778    2.3972 H   0  0  0  0  0  0  0  0  0  0  0  0
   -0.8166    2.2120    4.1620 H   0  0  0  0  0  0  0  0  0  0  0  0
   -2.3425    1.8291    3.2998 H   0  0  0  0  0  0  0  0  0  0  0  0
   -1.3897   -0.5619    4.0511 C   0  0  0  0  0  0  0  0  0  0  0  0
   -1.0105   -1.5971    3.9657 H   0  0  0  0  0  0  0  0  0  0  0  0
   -2.4855   -0.6010    3.8931 H   0  0  0  0  0  0  0  0  0  0  0  0
   -1.2169   -0.1938    5.0841 H   0  0  0  0  0  0  0  0  0  0  0  0
   -2.4814   -0.4704    0.4550 H   0  0  0  0  0  0  0  0  0  0  0  0
   -2.2765    1.2802    0.6253 H   0  0  0  0  0  0  0  0  0  0  0  0
   -3.7769    0.6964   -0.8083 C   0  0  0  0  0  0  0  0  0  0  0  0
   -4.1060   -0.1945   -1.3770 H   0  0  0  0  0  0  0  0  0  0  0  0
   -3.7851    1.5668   -1.4963 H   0  0  0  0  0  0  0  0  0  0  0  0
   -4.5485    0.8847   -0.0347 H   0  0  0  0  0  0  0  0  0  0  0  0
   -0.2512   -0.8794   -2.5035 H   0  0  0  0  0  0  0  0  0  0  0  0
   -1.6962   -1.5671   -1.6967 H   0  0  0  0  0  0  0  0  0  0  0  0
   -2.0999   -0.2882   -3.4060 C   0  0  0  0  0  0  0  0  0  0  0  0
   -2.0450   -1.1261   -4.1299 H   0  0  0  0  0  0  0  0  0  0  0  0
   -1.6869    0.6036   -3.9183 H   0  0  0  0  0  0  0  0  0  0  0  0
   -3.1672   -0.0953   -3.1995 H   0  0  0  0  0  0  0  0  0  0  0  0
  1  2  1  0  0  0  0
  1  5  1  0  0  0  0
  1  3  1  0  0  0  0
  1  4  1  0  0  0  0
  5  6  1  0  0  0  0
  5 16  1  0  0  0  0
  5  7  1  0  0  0  0
  7  9  1  0  0  0  0
  7  8  1  0  0  0  0
  9 10  1  0  0  0  0
  9 11  1  0  0  0  0
  9 12  1  0  0  0  0
 13 14  1  0  0  0  0
 13 15  1  0  0  0  0
  7 13  1  0  0  0  0
 13 16  1  0  0  0  0
 16 17  1  0  0  0  0
 16 18  1  0  0  0  0
 19 23  1  0  0  0  0
 19 24  1  0  0  0  0
 20 25  1  0  0  0  0
 20 27  1  0  0  0  0
 20 22  1  0  0  0  0
 20 24  1  0  0  0  0
 21 23  1  0  0  0  0
 21 22  1  0  0  0  0
 22 26  1  0  0  0  0
 22 28  1  0  0  0  0
 24 29  1  0  0  0  0
 24 30  1  0  0  0  0
 31 32  1  0  0  0  0
 31 33  1  0  0  0  0
 31 34  1  0  0  0  0
 21 31  1  0  0  0  0
 35 36  1  0  0  0  0
 35 37  1  0  0  0  0
 35 38  1  0  0  0  0
 21 35  1  0  0  0  0
 39 42  2  0  0  0  0
 42 43  1  0  0  0  0
 40 43  2  0  0  0  0
 40 44  1  0  0  0  0
 41 44  2  0  0  0  0
 39 41  1  0  0  0  0
 43 45  1  0  0  0  0
 44 46  1  0  0  0  0
 40 47  1  0  0  0  0
 23 39  1  0  0  0  0
 48 49  1  0  0  0  0
 42 48  1  0  0  0  0
 50 51  1  0  0  0  0
 41 50  1  0  0  0  0
 52 53  1  0  0  0  0
 52 54  1  0  0  0  0
 52 55  1  0  0  0  0
 50 52  1  0  0  0  0
 56 57  1  0  0  0  0
 56 58  1  0  0  0  0
 56 59  1  0  0  0  0
 50 56  1  0  0  0  0
 60 61  1  0  0  0  0
 60 62  1  0  0  0  0
 60 63  1  0  0  0  0
 48 60  1  0  0  0  0
 64 65  1  0  0  0  0
 64 66  1  0  0  0  0
 64 67  1  0  0  0  0
 48 64  1  0  0  0  0
 30 68  1  0  0  0  0
 30 69  1  0  0  0  0
 70 71  1  0  0  0  0
 70 72  1  0  0  0  0
 70 73  1  0  0  0  0
 30 70  1  0  0  0  0
 29 74  1  0  0  0  0
 29 75  1  0  0  0  0
 76 77  1  0  0  0  0
 76 78  1  0  0  0  0
 76 79  1  0  0  0  0
 29 76  1  0  0  0  0
 16 19  1  0  0  0  0
M  END
>  <DFT-ENERGY>
-2163.37023987

$$$$
