
  CDK     07312411173D

 73 76  0  0  0  0  0  0  0  0999 V2000
    0.5815    0.1903   -3.9390 H   0  0  0  0  0  0  0  0  0  0  0  0
    1.7890    0.4065   -4.0349 C   0  0  0  0  0  0  0  0  0  0  0  0
    1.7037    0.4862   -5.1388 H   0  0  0  0  0  0  0  0  0  0  0  0
    2.3281   -0.7969   -3.3370 C   0  0  0  0  0  0  0  0  0  0  0  0
    3.2988   -0.7053   -2.8245 H   0  0  0  0  0  0  0  0  0  0  0  0
    2.1310   -1.7680   -3.8206 H   0  0  0  0  0  0  0  0  0  0  0  0
    0.7760   -0.0165   -2.1881 Ru  0  0  0  0  0  0  0  0  0  0  0  0
    1.8193    1.5736   -3.1310 C   0  0  0  0  0  0  0  0  0  0  0  0
    2.7605    1.7891   -2.6077 H   0  0  0  0  0  0  0  0  0  0  0  0
    1.2056    2.4496   -3.4045 H   0  0  0  0  0  0  0  0  0  0  0  0
    2.4958    0.3856   -0.4938 Cl  0  0  0  0  0  0  0  0  0  0  0  0
   -0.6503   -1.6017   -3.3207 Cl  0  0  0  0  0  0  0  0  0  0  0  0
    0.0371   -0.5556   -0.3304 C   0  0  0  0  0  0  0  0  0  0  0  0
   -0.0736   -1.8734    1.8401 C   0  0  0  0  0  0  0  0  0  0  0  0
   -0.8644    0.5099    1.7878 C   0  0  0  0  0  0  0  0  0  0  0  0
   -1.2144   -0.9273    2.2025 C   0  0  0  0  0  0  0  0  0  0  0  0
   -0.5609    0.4767    0.2824 N   0  0  0  0  0  0  0  0  0  0  0  0
    0.0851   -1.9575    0.3115 C   0  0  0  0  0  0  0  0  0  0  0  0
   -0.2592   -2.8822    2.2526 H   0  0  0  0  0  0  0  0  0  0  0  0
   -1.4093   -0.9275    3.2942 H   0  0  0  0  0  0  0  0  0  0  0  0
    0.8752   -1.5259    2.2936 H   0  0  0  0  0  0  0  0  0  0  0  0
   -2.1559   -1.2444    1.7088 H   0  0  0  0  0  0  0  0  0  0  0  0
   -1.1398   -2.7485   -0.2992 C   0  0  0  0  0  0  0  0  0  0  0  0
    1.4155   -2.6498   -0.0825 C   0  0  0  0  0  0  0  0  0  0  0  0
    0.3898    0.9388    2.5894 C   0  0  0  0  0  0  0  0  0  0  0  0
    0.3207    0.5038    3.6065 H   0  0  0  0  0  0  0  0  0  0  0  0
    0.4526    2.0316    2.7080 H   0  0  0  0  0  0  0  0  0  0  0  0
    1.3231    0.5803    2.1174 H   0  0  0  0  0  0  0  0  0  0  0  0
   -2.0138    1.4708    2.0949 C   0  0  0  0  0  0  0  0  0  0  0  0
   -2.9858    1.1099    1.7186 H   0  0  0  0  0  0  0  0  0  0  0  0
   -1.8364    2.4755    1.6692 H   0  0  0  0  0  0  0  0  0  0  0  0
   -2.0911    1.5773    3.1949 H   0  0  0  0  0  0  0  0  0  0  0  0
   -0.8560    1.6239   -0.6017 C   0  0  0  0  0  0  0  0  0  0  0  0
   -1.5846    3.7715   -2.2949 C   0  0  0  0  0  0  0  0  0  0  0  0
   -1.9480    1.4690   -1.5294 C   0  0  0  0  0  0  0  0  0  0  0  0
   -0.1422    2.8653   -0.5306 C   0  0  0  0  0  0  0  0  0  0  0  0
   -0.5328    3.9084   -1.3901 C   0  0  0  0  0  0  0  0  0  0  0  0
   -2.2750    2.5636   -2.3568 C   0  0  0  0  0  0  0  0  0  0  0  0
    0.0150    4.8592   -1.3395 H   0  0  0  0  0  0  0  0  0  0  0  0
   -3.1062    2.4585   -3.0634 H   0  0  0  0  0  0  0  0  0  0  0  0
   -1.8688    4.6081   -2.9499 H   0  0  0  0  0  0  0  0  0  0  0  0
    1.0006    3.2004    0.4233 C   0  0  0  0  0  0  0  0  0  0  0  0
    1.3349    2.2643    0.8936 H   0  0  0  0  0  0  0  0  0  0  0  0
   -2.8267    0.2226   -1.6614 C   0  0  0  0  0  0  0  0  0  0  0  0
   -2.1617   -0.6540   -1.5848 H   0  0  0  0  0  0  0  0  0  0  0  0
   -3.9046    0.1176   -0.5695 C   0  0  0  0  0  0  0  0  0  0  0  0
   -4.4996    1.0509   -0.4900 H   0  0  0  0  0  0  0  0  0  0  0  0
   -3.4743   -0.1040    0.4233 H   0  0  0  0  0  0  0  0  0  0  0  0
   -4.6015   -0.7100   -0.8134 H   0  0  0  0  0  0  0  0  0  0  0  0
   -3.5007    0.1008   -3.0375 C   0  0  0  0  0  0  0  0  0  0  0  0
   -3.9224   -0.9181   -3.1397 H   0  0  0  0  0  0  0  0  0  0  0  0
   -2.7764    0.2393   -3.8612 H   0  0  0  0  0  0  0  0  0  0  0  0
   -4.3391    0.8183   -3.1609 H   0  0  0  0  0  0  0  0  0  0  0  0
    0.5331    4.2018    1.4987 C   0  0  0  0  0  0  0  0  0  0  0  0
   -0.3638    3.8601    2.0503 H   0  0  0  0  0  0  0  0  0  0  0  0
    0.2796    5.1801    1.0404 H   0  0  0  0  0  0  0  0  0  0  0  0
    1.3420    4.3789    2.2370 H   0  0  0  0  0  0  0  0  0  0  0  0
    2.2313    3.7830   -0.2926 C   0  0  0  0  0  0  0  0  0  0  0  0
    2.6105    3.0898   -1.0616 H   0  0  0  0  0  0  0  0  0  0  0  0
    3.0430    3.9412    0.4461 H   0  0  0  0  0  0  0  0  0  0  0  0
    2.0196    4.7650   -0.7628 H   0  0  0  0  0  0  0  0  0  0  0  0
    1.5300   -2.5376   -1.1809 H   0  0  0  0  0  0  0  0  0  0  0  0
    2.2427   -2.0619    0.3597 H   0  0  0  0  0  0  0  0  0  0  0  0
    1.5674   -4.1218    0.3038 C   0  0  0  0  0  0  0  0  0  0  0  0
    0.8679   -4.7818   -0.2462 H   0  0  0  0  0  0  0  0  0  0  0  0
    1.4207   -4.2980    1.3898 H   0  0  0  0  0  0  0  0  0  0  0  0
    2.5931   -4.4626    0.0575 H   0  0  0  0  0  0  0  0  0  0  0  0
   -1.9671   -2.0452   -0.5112 H   0  0  0  0  0  0  0  0  0  0  0  0
   -0.8280   -3.1221   -1.2910 H   0  0  0  0  0  0  0  0  0  0  0  0
   -1.7261   -3.8900    0.5407 C   0  0  0  0  0  0  0  0  0  0  0  0
   -2.4895   -4.4188   -0.0657 H   0  0  0  0  0  0  0  0  0  0  0  0
   -2.2375   -3.5326    1.4574 H   0  0  0  0  0  0  0  0  0  0  0  0
   -0.9738   -4.6395    0.8484 H   0  0  0  0  0  0  0  0  0  0  0  0
  1  2  1  0  0  0  0
  1  7  1  0  0  0  0
  2  3  1  0  0  0  0
  2  4  1  0  0  0  0
  4  5  1  0  0  0  0
  6  4  1  0  0  0  0
  7  8  1  0  0  0  0
  7  4  1  0  0  0  0
  8  2  1  0  0  0  0
  8  9  1  0  0  0  0
 10  8  1  0  0  0  0
  7 11  1  0  0  0  0
  7 12  1  0  0  0  0
 13 17  1  0  0  0  0
 13 18  1  0  0  0  0
 14 19  1  0  0  0  0
 14 21  1  0  0  0  0
 14 16  1  0  0  0  0
 14 18  1  0  0  0  0
 15 17  1  0  0  0  0
 15 16  1  0  0  0  0
 16 20  1  0  0  0  0
 16 22  1  0  0  0  0
 18 23  1  0  0  0  0
 18 24  1  0  0  0  0
 25 26  1  0  0  0  0
 25 27  1  0  0  0  0
 25 28  1  0  0  0  0
 15 25  1  0  0  0  0
 29 30  1  0  0  0  0
 29 31  1  0  0  0  0
 29 32  1  0  0  0  0
 15 29  1  0  0  0  0
 33 36  2  0  0  0  0
 36 37  1  0  0  0  0
 34 37  2  0  0  0  0
 34 38  1  0  0  0  0
 35 38  2  0  0  0  0
 33 35  1  0  0  0  0
 37 39  1  0  0  0  0
 38 40  1  0  0  0  0
 34 41  1  0  0  0  0
 17 33  1  0  0  0  0
 42 43  1  0  0  0  0
 36 42  1  0  0  0  0
 44 45  1  0  0  0  0
 35 44  1  0  0  0  0
 46 47  1  0  0  0  0
 46 48  1  0  0  0  0
 46 49  1  0  0  0  0
 44 46  1  0  0  0  0
 50 51  1  0  0  0  0
 50 52  1  0  0  0  0
 50 53  1  0  0  0  0
 44 50  1  0  0  0  0
 54 55  1  0  0  0  0
 54 56  1  0  0  0  0
 54 57  1  0  0  0  0
 42 54  1  0  0  0  0
 58 59  1  0  0  0  0
 58 60  1  0  0  0  0
 58 61  1  0  0  0  0
 42 58  1  0  0  0  0
 24 62  1  0  0  0  0
 24 63  1  0  0  0  0
 64 65  1  0  0  0  0
 64 66  1  0  0  0  0
 64 67  1  0  0  0  0
 24 64  1  0  0  0  0
 23 68  1  0  0  0  0
 23 69  1  0  0  0  0
 70 71  1  0  0  0  0
 70 72  1  0  0  0  0
 70 73  1  0  0  0  0
 23 70  1  0  0  0  0
  7 13  1  0  0  0  0
M  END
>  <DFT-ENERGY>
-2084.81608626

$$$$
