
  CDK     07312415353D

 73 75  0  0  0  0  0  0  0  0999 V2000
   -2.0025    0.9009   -0.6888 Ru  0  0  0  0  0  0  0  0  0  0  0  0
   -3.4772    2.2028   -0.9327 C   0  0  0  0  0  0  0  0  0  0  0  0
   -3.1606    3.1820   -1.3317 H   0  0  0  0  0  0  0  0  0  0  0  0
   -3.8180    1.1554   -2.0582 C   0  0  0  0  0  0  0  0  0  0  0  0
   -3.7597    1.6903   -3.0233 H   0  0  0  0  0  0  0  0  0  0  0  0
   -2.8438   -0.0853   -2.1658 C   0  0  0  0  0  0  0  0  0  0  0  0
   -3.3133   -1.0404   -1.8712 H   0  0  0  0  0  0  0  0  0  0  0  0
   -2.2711   -0.1121   -3.1076 H   0  0  0  0  0  0  0  0  0  0  0  0
   -4.8200    0.7524   -1.8228 H   0  0  0  0  0  0  0  0  0  0  0  0
   -4.2232    2.2266   -0.1195 H   0  0  0  0  0  0  0  0  0  0  0  0
   -0.7593    2.2512   -2.2581 Cl  0  0  0  0  0  0  0  0  0  0  0  0
   -3.4763   -0.2201    0.8137 Cl  0  0  0  0  0  0  0  0  0  0  0  0
   -0.3371    0.7824    0.3365 C   0  0  0  0  0  0  0  0  0  0  0  0
    1.3725    1.9880    1.8096 C   0  0  0  0  0  0  0  0  0  0  0  0
    2.0608    0.0360    0.3845 C   0  0  0  0  0  0  0  0  0  0  0  0
    2.1013    0.6517    1.7927 C   0  0  0  0  0  0  0  0  0  0  0  0
    0.5852   -0.1379    0.0064 N   0  0  0  0  0  0  0  0  0  0  0  0
   -0.1187    1.8074    1.4715 C   0  0  0  0  0  0  0  0  0  0  0  0
    1.8353    2.6836    1.0824 H   0  0  0  0  0  0  0  0  0  0  0  0
    1.6486   -0.0481    2.5247 H   0  0  0  0  0  0  0  0  0  0  0  0
    1.4707    2.4705    2.7993 H   0  0  0  0  0  0  0  0  0  0  0  0
    3.1650    0.7750    2.0809 H   0  0  0  0  0  0  0  0  0  0  0  0
   -0.7450    3.1599    1.0362 C   0  0  0  0  0  0  0  0  0  0  0  0
   -0.8955    1.1934    2.6968 C   0  0  0  0  0  0  0  0  0  0  0  0
    2.7965   -1.3048    0.3567 C   0  0  0  0  0  0  0  0  0  0  0  0
    3.8713   -1.1094    0.5412 H   0  0  0  0  0  0  0  0  0  0  0  0
    2.7056   -1.8070   -0.6230 H   0  0  0  0  0  0  0  0  0  0  0  0
    2.4375   -2.0049    1.1302 H   0  0  0  0  0  0  0  0  0  0  0  0
    2.7446    1.0184   -0.5971 C   0  0  0  0  0  0  0  0  0  0  0  0
    2.0667    1.8374   -0.9016 H   0  0  0  0  0  0  0  0  0  0  0  0
    3.0970    0.5104   -1.5079 H   0  0  0  0  0  0  0  0  0  0  0  0
    3.6336    1.4592   -0.1020 H   0  0  0  0  0  0  0  0  0  0  0  0
    0.1471   -1.3105   -0.7719 C   0  0  0  0  0  0  0  0  0  0  0  0
   -0.6009   -3.6687   -2.1314 C   0  0  0  0  0  0  0  0  0  0  0  0
    0.4286   -1.4440   -2.1656 C   0  0  0  0  0  0  0  0  0  0  0  0
   -0.5343   -2.3557   -0.0630 C   0  0  0  0  0  0  0  0  0  0  0  0
   -0.8855   -3.5173   -0.7735 C   0  0  0  0  0  0  0  0  0  0  0  0
    0.0377   -2.6346   -2.8106 C   0  0  0  0  0  0  0  0  0  0  0  0
   -1.4043   -4.3242   -0.2423 H   0  0  0  0  0  0  0  0  0  0  0  0
    0.2518   -2.7441   -3.8826 H   0  0  0  0  0  0  0  0  0  0  0  0
   -0.8855   -4.5906   -2.6593 H   0  0  0  0  0  0  0  0  0  0  0  0
   -0.9371   -2.2912    1.4103 C   0  0  0  0  0  0  0  0  0  0  0  0
   -1.2467   -1.2488    1.6044 H   0  0  0  0  0  0  0  0  0  0  0  0
    1.1559   -0.4275   -3.0414 C   0  0  0  0  0  0  0  0  0  0  0  0
    1.2356    0.5178   -2.4793 H   0  0  0  0  0  0  0  0  0  0  0  0
    2.5579   -0.9453   -3.4246 C   0  0  0  0  0  0  0  0  0  0  0  0
    2.4791   -1.8307   -4.0887 H   0  0  0  0  0  0  0  0  0  0  0  0
    3.1647   -1.2514   -2.5506 H   0  0  0  0  0  0  0  0  0  0  0  0
    3.1205   -0.1640   -3.9757 H   0  0  0  0  0  0  0  0  0  0  0  0
    0.3909   -0.0969   -4.3356 C   0  0  0  0  0  0  0  0  0  0  0  0
    0.9462    0.6787   -4.9004 H   0  0  0  0  0  0  0  0  0  0  0  0
   -0.6078    0.3196   -4.1174 H   0  0  0  0  0  0  0  0  0  0  0  0
    0.2874   -0.9800   -4.9987 H   0  0  0  0  0  0  0  0  0  0  0  0
    0.1960   -2.6696    2.3789 C   0  0  0  0  0  0  0  0  0  0  0  0
    1.0253   -1.9406    2.3720 H   0  0  0  0  0  0  0  0  0  0  0  0
    0.6147   -3.6685    2.1364 H   0  0  0  0  0  0  0  0  0  0  0  0
   -0.1955   -2.7099    3.4160 H   0  0  0  0  0  0  0  0  0  0  0  0
   -2.1676   -3.1535    1.7369 C   0  0  0  0  0  0  0  0  0  0  0  0
   -2.9900   -2.9753    1.0204 H   0  0  0  0  0  0  0  0  0  0  0  0
   -2.5409   -2.8799    2.7435 H   0  0  0  0  0  0  0  0  0  0  0  0
   -1.9258   -4.2369    1.7603 H   0  0  0  0  0  0  0  0  0  0  0  0
   -1.9750    1.3824    2.5357 H   0  0  0  0  0  0  0  0  0  0  0  0
   -0.8031    0.0910    2.6667 H   0  0  0  0  0  0  0  0  0  0  0  0
   -0.4684    1.6412    4.0988 C   0  0  0  0  0  0  0  0  0  0  0  0
   -0.4727    2.7392    4.2315 H   0  0  0  0  0  0  0  0  0  0  0  0
    0.5425    1.2750    4.3707 H   0  0  0  0  0  0  0  0  0  0  0  0
   -1.1732    1.2147    4.8410 H   0  0  0  0  0  0  0  0  0  0  0  0
   -0.2666    3.4655    0.0842 H   0  0  0  0  0  0  0  0  0  0  0  0
   -1.8120    2.9775    0.7814 H   0  0  0  0  0  0  0  0  0  0  0  0
   -0.6809    4.3085    2.0451 C   0  0  0  0  0  0  0  0  0  0  0  0
   -1.0531    5.2383    1.5710 H   0  0  0  0  0  0  0  0  0  0  0  0
    0.3533    4.5113    2.3905 H   0  0  0  0  0  0  0  0  0  0  0  0
   -1.3089    4.1248    2.9384 H   0  0  0  0  0  0  0  0  0  0  0  0
  2  4  1  0  0  0  0
  2  1  1  0  0  0  0
  2  3  1  0  0  0  0
  4  6  1  0  0  0  0
  4  5  1  0  0  0  0
  6  1  1  0  0  0  0
  6  8  1  0  0  0  0
  7  6  1  0  0  0  0
  9  4  1  0  0  0  0
 10  2  1  0  0  0  0
  1 11  1  0  0  0  0
  1 12  1  0  0  0  0
 13 17  1  0  0  0  0
 13 18  1  0  0  0  0
 14 19  1  0  0  0  0
 14 21  1  0  0  0  0
 14 16  1  0  0  0  0
 14 18  1  0  0  0  0
 15 17  1  0  0  0  0
 15 16  1  0  0  0  0
 16 20  1  0  0  0  0
 16 22  1  0  0  0  0
 18 23  1  0  0  0  0
 18 24  1  0  0  0  0
 25 26  1  0  0  0  0
 25 27  1  0  0  0  0
 25 28  1  0  0  0  0
 15 25  1  0  0  0  0
 29 30  1  0  0  0  0
 29 31  1  0  0  0  0
 29 32  1  0  0  0  0
 15 29  1  0  0  0  0
 33 36  2  0  0  0  0
 36 37  1  0  0  0  0
 34 37  2  0  0  0  0
 34 38  1  0  0  0  0
 35 38  2  0  0  0  0
 33 35  1  0  0  0  0
 37 39  1  0  0  0  0
 38 40  1  0  0  0  0
 34 41  1  0  0  0  0
 17 33  1  0  0  0  0
 42 43  1  0  0  0  0
 36 42  1  0  0  0  0
 44 45  1  0  0  0  0
 35 44  1  0  0  0  0
 46 47  1  0  0  0  0
 46 48  1  0  0  0  0
 46 49  1  0  0  0  0
 44 46  1  0  0  0  0
 50 51  1  0  0  0  0
 50 52  1  0  0  0  0
 50 53  1  0  0  0  0
 44 50  1  0  0  0  0
 54 55  1  0  0  0  0
 54 56  1  0  0  0  0
 54 57  1  0  0  0  0
 42 54  1  0  0  0  0
 58 59  1  0  0  0  0
 58 60  1  0  0  0  0
 58 61  1  0  0  0  0
 42 58  1  0  0  0  0
 24 62  1  0  0  0  0
 24 63  1  0  0  0  0
 64 65  1  0  0  0  0
 64 66  1  0  0  0  0
 64 67  1  0  0  0  0
 24 64  1  0  0  0  0
 23 68  1  0  0  0  0
 23 69  1  0  0  0  0
 70 71  1  0  0  0  0
 70 72  1  0  0  0  0
 70 73  1  0  0  0  0
 23 70  1  0  0  0  0
  1 13  1  0  0  0  0
M  END
>  <DFT-ENERGY>
-2084.86485011

$$$$
