UFECOYMODN4_A1
  CDK     02062420443D

 73 77  0  0  0  0  0  0  0  0999 V2000
    0.6882   -0.2883   -0.0649 Ru  0  0  0  0  0  0  0  0  0  0  0  0
    2.4660   -0.2883   -1.4541 O   0  0  0  0  0  0  0  0  0  0  0  0
    1.8984   -1.2216    0.9392 C   0  0  0  0  0  0  0  0  0  0  0  0
    1.6656   -1.5145    1.9619 H   0  0  0  0  0  0  0  0  0  0  0  0
    2.7015    0.4869   -2.6799 C   0  0  0  0  0  0  0  0  0  0  0  0
    3.1117   -0.2126   -3.4386 H   0  0  0  0  0  0  0  0  0  0  0  0
    1.2790    0.9265   -2.9960 C   0  0  0  0  0  0  0  0  0  0  0  0
    1.2064    1.4232   -3.9662 H   0  0  0  0  0  0  0  0  0  0  0  0
    0.8923    1.6232   -2.2239 H   0  0  0  0  0  0  0  0  0  0  0  0
    0.5921    0.0543   -2.9994 H   0  0  0  0  0  0  0  0  0  0  0  0
    3.6392    1.6333   -2.3461 C   0  0  0  0  0  0  0  0  0  0  0  0
    3.6328    2.4047   -3.1225 H   0  0  0  0  0  0  0  0  0  0  0  0
    4.6729    1.3054   -2.1962 H   0  0  0  0  0  0  0  0  0  0  0  0
    3.3192    2.1173   -1.4018 H   0  0  0  0  0  0  0  0  0  0  0  0
    3.4582   -1.0867   -0.9491 C   0  0  0  0  0  0  0  0  0  0  0  0
    4.6273   -1.4354   -1.6021 C   0  0  0  0  0  0  0  0  0  0  0  0
    4.8460   -1.0852   -2.6081 H   0  0  0  0  0  0  0  0  0  0  0  0
    5.5285   -2.2665   -0.9446 C   0  0  0  0  0  0  0  0  0  0  0  0
    6.4510   -2.5542   -1.4534 H   0  0  0  0  0  0  0  0  0  0  0  0
    5.2785   -2.7381    0.3407 C   0  0  0  0  0  0  0  0  0  0  0  0
    6.0033   -3.3828    0.8349 H   0  0  0  0  0  0  0  0  0  0  0  0
    4.1088   -2.3778    0.9823 C   0  0  0  0  0  0  0  0  0  0  0  0
    3.9156   -2.7324    1.9936 H   0  0  0  0  0  0  0  0  0  0  0  0
    3.1733   -1.5624    0.3429 C   0  0  0  0  0  0  0  0  0  0  0  0
    1.2882    1.9049    0.4957 Cl  0  0  0  0  0  0  0  0  0  0  0  0
   -0.1433   -2.0116   -1.4379 Cl  0  0  0  0  0  0  0  0  0  0  0  0
   -2.1169    0.3904    0.6323 N   0  0  0  0  0  0  0  0  0  0  0  0
   -1.2399   -0.7220    2.3352 N   0  0  0  0  0  0  0  0  0  0  0  0
   -0.9216   -0.2395    1.0565 C   0  0  0  0  0  0  0  0  0  0  0  0
   -3.1273    0.2898    1.6315 C   0  0  0  0  0  0  0  0  0  0  0  0
   -4.1086    0.7074    1.4970 H   0  0  0  0  0  0  0  0  0  0  0  0
   -2.5860   -0.3985    2.6869 C   0  0  0  0  0  0  0  0  0  0  0  0
   -3.0129   -0.6851    3.6300 H   0  0  0  0  0  0  0  0  0  0  0  0
   -2.3754    1.0668   -0.6185 C   0  0  0  0  0  0  0  0  0  0  0  0
   -2.1573    2.4623   -0.7188 C   0  0  0  0  0  0  0  0  0  0  0  0
   -2.4905    3.1166   -1.9138 C   0  0  0  0  0  0  0  0  0  0  0  0
   -2.3199    4.1881   -1.9963 H   0  0  0  0  0  0  0  0  0  0  0  0
   -3.0352    2.4113   -2.9936 C   0  0  0  0  0  0  0  0  0  0  0  0
   -3.2508    1.0306   -2.8818 C   0  0  0  0  0  0  0  0  0  0  0  0
   -3.6720    0.4803   -3.7209 H   0  0  0  0  0  0  0  0  0  0  0  0
   -2.9292    0.3429   -1.7043 C   0  0  0  0  0  0  0  0  0  0  0  0
   -1.5953    3.2670    0.4030 C   0  0  0  0  0  0  0  0  0  0  0  0
   -1.2629    2.6607    1.2599 H   0  0  0  0  0  0  0  0  0  0  0  0
   -2.3176    4.0048    0.7743 H   0  0  0  0  0  0  0  0  0  0  0  0
   -0.6918    3.8153    0.0799 H   0  0  0  0  0  0  0  0  0  0  0  0
   -3.3943    3.1168   -4.2606 C   0  0  0  0  0  0  0  0  0  0  0  0
   -4.4769    3.0661   -4.4486 H   0  0  0  0  0  0  0  0  0  0  0  0
   -2.8947    2.6608   -5.1278 H   0  0  0  0  0  0  0  0  0  0  0  0
   -3.1175    4.1791   -4.2515 H   0  0  0  0  0  0  0  0  0  0  0  0
   -3.1932   -1.1225   -1.6362 C   0  0  0  0  0  0  0  0  0  0  0  0
   -2.7907   -1.6029   -0.7309 H   0  0  0  0  0  0  0  0  0  0  0  0
   -2.7024   -1.6499   -2.4744 H   0  0  0  0  0  0  0  0  0  0  0  0
   -4.2667   -1.3438   -1.6856 H   0  0  0  0  0  0  0  0  0  0  0  0
   -0.4052   -1.4554    3.2545 C   0  0  0  0  0  0  0  0  0  0  0  0
   -0.3613   -2.8686    3.1778 C   0  0  0  0  0  0  0  0  0  0  0  0
    0.3508   -3.5705    4.1560 C   0  0  0  0  0  0  0  0  0  0  0  0
    0.3813   -4.6577    4.1210 H   0  0  0  0  0  0  0  0  0  0  0  0
    1.0312   -2.8881    5.1770 C   0  0  0  0  0  0  0  0  0  0  0  0
    1.0337   -1.4864    5.2011 C   0  0  0  0  0  0  0  0  0  0  0  0
    1.5913   -0.9587    5.9721 H   0  0  0  0  0  0  0  0  0  0  0  0
    0.3310   -0.7531    4.2370 C   0  0  0  0  0  0  0  0  0  0  0  0
   -1.0273   -3.5791    2.0503 C   0  0  0  0  0  0  0  0  0  0  0  0
   -2.1172   -3.4366    2.0599 H   0  0  0  0  0  0  0  0  0  0  0  0
   -0.8362   -4.6592    2.0457 H   0  0  0  0  0  0  0  0  0  0  0  0
   -0.6673   -3.1882    1.0722 H   0  0  0  0  0  0  0  0  0  0  0  0
    1.7667   -3.6647    6.2194 C   0  0  0  0  0  0  0  0  0  0  0  0
    1.1158   -4.4097    6.6998 H   0  0  0  0  0  0  0  0  0  0  0  0
    2.1731   -3.0304    7.0183 H   0  0  0  0  0  0  0  0  0  0  0  0
    2.6142   -4.2124    5.7803 H   0  0  0  0  0  0  0  0  0  0  0  0
    0.3839    0.7360    4.2146 C   0  0  0  0  0  0  0  0  0  0  0  0
   -0.6052    1.1852    4.3830 H   0  0  0  0  0  0  0  0  0  0  0  0
    0.7315    1.1007    3.2235 H   0  0  0  0  0  0  0  0  0  0  0  0
    1.0681    1.1554    4.9625 H   0  0  0  0  0  0  0  0  0  0  0  0
  1  2  1  0  0  0  0
  1  3  2  0  0  0  0
  3  4  1  0  0  0  0
  2  5  1  0  0  0  0
  5  6  1  0  0  0  0
  5  7  1  0  0  0  0
  7  8  1  0  0  0  0
  7  9  1  0  0  0  0
  7 10  1  0  0  0  0
  5 11  1  0  0  0  0
 11 12  1  0  0  0  0
 11 13  1  0  0  0  0
 11 14  1  0  0  0  0
  2 15  1  0  0  0  0
 15 24  1  0  0  0  0
 15 16  2  0  0  0  0
 16 17  1  0  0  0  0
 16 18  1  0  0  0  0
 18 19  1  0  0  0  0
 18 20  2  0  0  0  0
 20 21  1  0  0  0  0
 20 22  1  0  0  0  0
 22 24  2  0  0  0  0
 22 23  1  0  0  0  0
  3 24  1  0  0  0  0
  1 25  1  0  0  0  0
  1 26  1  0  0  0  0
 27 29  1  0  0  0  0
 28 29  1  0  0  0  0
 27 30  1  0  0  0  0
 30 31  1  0  0  0  0
 28 32  1  0  0  0  0
 32 33  1  0  0  0  0
 27 34  1  0  0  0  0
 34 35  2  0  0  0  0
 35 36  1  0  0  0  0
 36 37  1  0  0  0  0
 36 38  2  0  0  0  0
 38 39  1  0  0  0  0
 39 40  1  0  0  0  0
 34 41  1  0  0  0  0
 35 42  1  0  0  0  0
 42 43  1  0  0  0  0
 42 44  1  0  0  0  0
 42 45  1  0  0  0  0
 38 46  1  0  0  0  0
 46 47  1  0  0  0  0
 46 48  1  0  0  0  0
 46 49  1  0  0  0  0
 41 50  1  0  0  0  0
 50 51  1  0  0  0  0
 50 52  1  0  0  0  0
 50 53  1  0  0  0  0
 28 54  1  0  0  0  0
 54 55  1  0  0  0  0
 55 56  2  0  0  0  0
 56 57  1  0  0  0  0
 56 58  1  0  0  0  0
 58 59  2  0  0  0  0
 59 60  1  0  0  0  0
 54 61  2  0  0  0  0
 55 62  1  0  0  0  0
 62 63  1  0  0  0  0
 62 64  1  0  0  0  0
 62 65  1  0  0  0  0
 58 66  1  0  0  0  0
 66 67  1  0  0  0  0
 66 68  1  0  0  0  0
 66 69  1  0  0  0  0
 61 70  1  0  0  0  0
 70 71  1  0  0  0  0
 70 72  1  0  0  0  0
 70 73  1  0  0  0  0
 30 32  2  0  0  0  0
 39 41  2  0  0  0  0
 59 61  1  0  0  0  0
  1 29  1  0  0  0  0
M  END
> <FrozenCore-PM6_ENERGY>
65.436

> <RMSD_CONF_CG-CS>
0.856784

> <RMSD_CONF_GO-CS>
0.000000

> <UID>


> <freeEnergyA>
-2400.9441641

> <freeEnergyF>
-2400.92850517

> <freeEnergyE>
-2400.9441641

> <freeEnergyC>
-2055.68871297

> <freeEnergyL>
-923.082032446

> <freeEnergyX>
-2134.22385488

> <freeEnergyZ>
-2055.67027904

> <freeEnergyD>
-2055.71274889

> <G_Propene>
-117.738020895

> <G_Ethene>
-78.4716324751

> <G_HoveydaProd>
-502.204109499

> <G_SIMes>
-924.27249048

> <G_HG_RuCl2_SIMes>
-2402.13728523

> <DG_referenceProductionBarrier>
0.01468968

> <hartree_to_kcalmol>
627.49467516

> <DFT_IDENTIFIER>
1707311040086

> <DFT_MACHINE>
158.36.42.38

> <XTB_IDENTIFIER>
NREC

> <XTB_MACHINE>
NREC

> <DE_Synth>
1.67107855943989536

> <DESCRIPTOR_DEFINITION_1>
desc1=( echo "1 * ( e( $hartree_to_kcalmol * ( ( $freeEnergyZ - $freeEnergyD ) - ( $freeEnergyX + 2*$G_Ethene - $freeEnergyD - 2*$G_Propene ) - $DDG_reference_HGII ) / $kT ) ) " | bc -l )

> <DESCRIPTOR_DEFINITION_2>
desc2=$( echo "1 * ( $hartree_to_kcalmol * ( ( $freeEnergyZ - $freeEnergyD ) - ( $freeEnergyX + 2*$G_Ethene - $freeEnergyD - 2*$G_Propene ) ) )" | bc -l )

> <DESCRIPTOR_DEFINITION_3>
desc3=$( echo "1 * $hartree_to_kcalmol * ( $DG_referenceProductionBarrier - ( $freeEnergyX + 2*$G_Ethene - $freeEnergyD - 2*$G_Propene ) )" | bc -l )

> <WEIGHT_DEFINITION_1>
w1=$( echo "1 / ( 1 + e( $hartree_to_kcalmol * ( ( ( $freeEnergyX + 2*$G_Ethene - $freeEnergyD - 2*$G_Propene ) ) - ( $DG_referenceProductionBarrier + $magnitude4 ) ) / $kT ) )" | bc -l )

> <WEIGHT_DEFINITION_2>
w2=$( echo "1 / ( 1 + e( $hartree_to_kcalmol * ( ABS( $freeEnergyC + $G_HoveydaProd - $freeEnergyA - 2*${G_Ethene} - $DG_referencePrecursorStabilityHII ) - ( $DDG_referencePrecursorStability + $magnitude1 ) ) / $kT ) )" | bc -l )

> <WEIGHT_DEFINITION_3>
w3=$( echo "1 / ( 1 + e( $hartree_to_kcalmol * ( ( $freeEnergyE + $G_SIMes - $G_HG_RuCl2_SIMes - $freeEnergyL ) - ( $DG_referenceSynt  + $magnitude1 ) ) / $kT ) )" | bc -l )

> <WEIGHT_DEFINITION_4>
w4=$( echo "1 / ( 1 + e( $hartree_to_kcalmol * ( - ( $freeEnergyF - $freeEnergyA ) + $magnitude2 ) / $kT ) )" | bc -l )

> <FITNESS_DEFINITION>
fitness=$( echo "( $desc1 + $desc2 + $desc3 ) * $w1 * $w2 * $w3 * $w4" | bc -l )

> <DESCRIPTOR_1>
.23592832162838933526

> <DESCRIPTOR_2>
13.051261874151775032

> <DESCRIPTOR_3>
.376857614534217000

> <WEIGHT_1>
.99994542320307416001

> <WEIGHT_2>
.99999999571095171982

> <WEIGHT_3>
.99999999981541043757

> <WEIGHT_4>
.99998610936169377771

> <FITNESS>
13.66311221724090882939

$$$$
