
  CDK     08132405523D

 65 68  0  0  0  0  0  0  0  0999 V2000
    1.6369    0.4163    2.7827 C   0  0  0  0  0  0  0  0  0  0  0  0
    2.0932   -0.5892    2.7750 H   0  0  0  0  0  0  0  0  0  0  0  0
    2.0468    1.0083    3.6315 H   0  0  0  0  0  0  0  0  0  0  0  0
    1.9478    0.9455    1.8568 H   0  0  0  0  0  0  0  0  0  0  0  0
    0.1328    0.3648    2.9118 C   0  0  0  0  0  0  0  0  0  0  0  0
   -0.3690    1.3449    3.0134 H   0  0  0  0  0  0  0  0  0  0  0  0
   -0.5979   -0.7427    3.4198 C   0  0  0  0  0  0  0  0  0  0  0  0
   -0.0412   -1.6837    3.5724 H   0  0  0  0  0  0  0  0  0  0  0  0
   -1.8293   -0.5051    4.2653 C   0  0  0  0  0  0  0  0  0  0  0  0
   -2.4596   -1.4083    4.3703 H   0  0  0  0  0  0  0  0  0  0  0  0
   -1.5021   -0.2062    5.2844 H   0  0  0  0  0  0  0  0  0  0  0  0
   -2.4395    0.3192    3.8465 H   0  0  0  0  0  0  0  0  0  0  0  0
   -1.8722   -1.6134    1.6866 C   0  0  0  0  0  0  0  0  0  0  0  0
   -2.8968   -1.2459    1.9085 H   0  0  0  0  0  0  0  0  0  0  0  0
   -1.6687   -2.6976    1.8281 H   0  0  0  0  0  0  0  0  0  0  0  0
   -0.5733   -0.4948    1.0540 Ru  0  0  0  0  0  0  0  0  0  0  0  0
   -2.1514    1.3248    1.1274 Cl  0  0  0  0  0  0  0  0  0  0  0  0
    0.9779   -2.3339    1.0829 Cl  0  0  0  0  0  0  0  0  0  0  0  0
    2.6790    0.3719   -1.0308 C   0  0  0  0  0  0  0  0  0  0  0  0
    1.4278    1.0127   -1.1733 C   0  0  0  0  0  0  0  0  0  0  0  0
    1.2118    2.3633   -0.8222 C   0  0  0  0  0  0  0  0  0  0  0  0
    2.2803    3.0465   -0.2138 C   0  0  0  0  0  0  0  0  0  0  0  0
    3.5246    2.4318    0.0122 C   0  0  0  0  0  0  0  0  0  0  0  0
    3.7107    1.1062   -0.4231 C   0  0  0  0  0  0  0  0  0  0  0  0
    0.3321    0.2613   -1.7316 N   0  0  0  0  0  0  0  0  0  0  0  0
   -0.5669   -0.4358   -0.9620 C   0  0  0  0  0  0  0  0  0  0  0  0
   -1.4225   -1.0348   -1.8556 N   0  0  0  0  0  0  0  0  0  0  0  0
   -1.0545   -0.7140   -3.1701 C   0  0  0  0  0  0  0  0  0  0  0  0
    0.0436    0.1044   -3.0921 C   0  0  0  0  0  0  0  0  0  0  0  0
   -2.5340   -1.8772   -1.4960 C   0  0  0  0  0  0  0  0  0  0  0  0
   -2.2976   -3.2553   -1.3057 C   0  0  0  0  0  0  0  0  0  0  0  0
   -3.3891   -4.0456   -0.9078 C   0  0  0  0  0  0  0  0  0  0  0  0
   -4.6726   -3.5004   -0.7193 C   0  0  0  0  0  0  0  0  0  0  0  0
   -4.8648   -2.1300   -0.9685 C   0  0  0  0  0  0  0  0  0  0  0  0
   -3.8095   -1.2909   -1.3675 C   0  0  0  0  0  0  0  0  0  0  0  0
   -0.9328   -3.8471   -1.5199 C   0  0  0  0  0  0  0  0  0  0  0  0
   -5.8133   -4.3702   -0.2540 C   0  0  0  0  0  0  0  0  0  0  0  0
   -4.0255    0.1706   -1.6420 C   0  0  0  0  0  0  0  0  0  0  0  0
   -0.0934    3.0487   -1.1133 C   0  0  0  0  0  0  0  0  0  0  0  0
    4.6353    3.1711    0.7140 C   0  0  0  0  0  0  0  0  0  0  0  0
    2.8951   -1.0334   -1.5167 C   0  0  0  0  0  0  0  0  0  0  0  0
   -1.8941   -1.3009   -4.5359 Cl  0  0  0  0  0  0  0  0  0  0  0  0
    0.9593    0.8531   -4.3236 Cl  0  0  0  0  0  0  0  0  0  0  0  0
   -3.2284   -5.1233   -0.7498 H   0  0  0  0  0  0  0  0  0  0  0  0
   -5.8692   -1.6941   -0.8551 H   0  0  0  0  0  0  0  0  0  0  0  0
   -0.2169   -3.4844   -0.7495 H   0  0  0  0  0  0  0  0  0  0  0  0
   -0.5203   -3.5623   -2.5096 H   0  0  0  0  0  0  0  0  0  0  0  0
   -0.9712   -4.9510   -1.4674 H   0  0  0  0  0  0  0  0  0  0  0  0
   -5.7788   -5.3725   -0.7251 H   0  0  0  0  0  0  0  0  0  0  0  0
   -6.7953   -3.9127   -0.4814 H   0  0  0  0  0  0  0  0  0  0  0  0
   -5.7673   -4.5273    0.8449 H   0  0  0  0  0  0  0  0  0  0  0  0
   -3.6739    0.4480   -2.6571 H   0  0  0  0  0  0  0  0  0  0  0  0
   -3.4625    0.7879   -0.9089 H   0  0  0  0  0  0  0  0  0  0  0  0
   -5.0978    0.4297   -1.5669 H   0  0  0  0  0  0  0  0  0  0  0  0
    2.1337    4.0977    0.0780 H   0  0  0  0  0  0  0  0  0  0  0  0
    4.6913    0.6242   -0.2906 H   0  0  0  0  0  0  0  0  0  0  0  0
   -0.9108    2.6356   -0.4829 H   0  0  0  0  0  0  0  0  0  0  0  0
   -0.3899    2.9098   -2.1731 H   0  0  0  0  0  0  0  0  0  0  0  0
   -0.0161    4.1339   -0.9155 H   0  0  0  0  0  0  0  0  0  0  0  0
    4.6405    2.9304    1.7988 H   0  0  0  0  0  0  0  0  0  0  0  0
    4.5193    4.2681    0.6209 H   0  0  0  0  0  0  0  0  0  0  0  0
    5.6291    2.8890    0.3144 H   0  0  0  0  0  0  0  0  0  0  0  0
    2.2940   -1.7455   -0.9116 H   0  0  0  0  0  0  0  0  0  0  0  0
    3.9602   -1.3171   -1.4298 H   0  0  0  0  0  0  0  0  0  0  0  0
    2.5920   -1.1454   -2.5776 H   0  0  0  0  0  0  0  0  0  0  0  0
  1  2  1  0  0  0  0
  1  5  1  0  0  0  0
  1  3  1  0  0  0  0
  1  4  1  0  0  0  0
  5  6  1  0  0  0  0
  5 16  1  0  0  0  0
  5  7  1  0  0  0  0
  7  9  1  0  0  0  0
  7  8  1  0  0  0  0
  9 10  1  0  0  0  0
  9 11  1  0  0  0  0
  9 12  1  0  0  0  0
 13 14  1  0  0  0  0
 13 15  1  0  0  0  0
  7 13  1  0  0  0  0
 13 16  1  0  0  0  0
 16 17  1  0  0  0  0
 16 18  1  0  0  0  0
 19 20  2  0  0  0  0
 19 24  1  0  0  0  0
 19 41  1  0  0  0  0
 20 21  1  0  0  0  0
 20 25  1  0  0  0  0
 21 22  2  0  0  0  0
 21 39  1  0  0  0  0
 22 23  1  0  0  0  0
 22 55  1  0  0  0  0
 23 24  2  0  0  0  0
 23 40  1  0  0  0  0
 24 56  1  0  0  0  0
 25 26  1  0  0  0  0
 25 29  1  0  0  0  0
 26 27  1  0  0  0  0
 27 28  1  0  0  0  0
 27 30  1  0  0  0  0
 28 29  2  0  0  0  0
 28 42  1  0  0  0  0
 29 43  1  0  0  0  0
 30 31  1  0  0  0  0
 30 35  2  0  0  0  0
 31 32  2  0  0  0  0
 31 36  1  0  0  0  0
 32 33  1  0  0  0  0
 32 44  1  0  0  0  0
 33 34  2  0  0  0  0
 33 37  1  0  0  0  0
 34 35  1  0  0  0  0
 34 45  1  0  0  0  0
 35 38  1  0  0  0  0
 36 46  1  0  0  0  0
 36 47  1  0  0  0  0
 36 48  1  0  0  0  0
 37 49  1  0  0  0  0
 37 50  1  0  0  0  0
 37 51  1  0  0  0  0
 38 52  1  0  0  0  0
 38 53  1  0  0  0  0
 38 54  1  0  0  0  0
 39 57  1  0  0  0  0
 39 58  1  0  0  0  0
 39 59  1  0  0  0  0
 40 60  1  0  0  0  0
 40 61  1  0  0  0  0
 40 62  1  0  0  0  0
 41 63  1  0  0  0  0
 41 64  1  0  0  0  0
 41 65  1  0  0  0  0
 16 26  1  0  0  0  0
M  END
>  <DFT-ENERGY>
-3053.06924314

$$$$
