
  CDK     08132410043D

 59 63  0  0  0  0  0  0  0  0999 V2000
    0.9540    0.6066   -2.9527 H   0  0  0  0  0  0  0  0  0  0  0  0
    2.1736    0.4823   -2.8471 C   0  0  0  0  0  0  0  0  0  0  0  0
    2.2164    0.4669   -3.9593 H   0  0  0  0  0  0  0  0  0  0  0  0
    2.2490   -0.7509   -2.0091 C   0  0  0  0  0  0  0  0  0  0  0  0
    3.1338   -0.8778   -1.3636 H   0  0  0  0  0  0  0  0  0  0  0  0
    1.8578   -1.6789   -2.4608 H   0  0  0  0  0  0  0  0  0  0  0  0
    0.8322    0.4992   -1.1863 Ru  0  0  0  0  0  0  0  0  0  0  0  0
    2.4122    1.6951   -2.0585 C   0  0  0  0  0  0  0  0  0  0  0  0
    3.2664    1.7373   -1.3724 H   0  0  0  0  0  0  0  0  0  0  0  0
    2.0933    2.6560   -2.4976 H   0  0  0  0  0  0  0  0  0  0  0  0
    2.3372    0.8354    0.6963 Cl  0  0  0  0  0  0  0  0  0  0  0  0
   -1.0038   -0.2365   -2.5418 Cl  0  0  0  0  0  0  0  0  0  0  0  0
   -1.5677    2.8917    0.4112 C   0  0  0  0  0  0  0  0  0  0  0  0
   -0.8037    2.1680    1.3520 C   0  0  0  0  0  0  0  0  0  0  0  0
    0.0344    2.7943    2.3006 C   0  0  0  0  0  0  0  0  0  0  0  0
    0.1605    4.1903    2.2220 C   0  0  0  0  0  0  0  0  0  0  0  0
   -0.5257    4.9511    1.2586 C   0  0  0  0  0  0  0  0  0  0  0  0
   -1.3974    4.2874    0.3791 C   0  0  0  0  0  0  0  0  0  0  0  0
   -0.9115    0.7298    1.3555 N   0  0  0  0  0  0  0  0  0  0  0  0
   -0.3009   -0.0916    0.4384 C   0  0  0  0  0  0  0  0  0  0  0  0
   -0.6666   -1.3670    0.7960 N   0  0  0  0  0  0  0  0  0  0  0  0
   -1.4862   -1.3400    1.9299 C   0  0  0  0  0  0  0  0  0  0  0  0
   -1.6445   -0.0214    2.2782 C   0  0  0  0  0  0  0  0  0  0  0  0
   -0.3278   -2.5682    0.0707 C   0  0  0  0  0  0  0  0  0  0  0  0
   -1.2993   -3.1350   -0.7804 C   0  0  0  0  0  0  0  0  0  0  0  0
   -0.9264   -4.2725   -1.5159 C   0  0  0  0  0  0  0  0  0  0  0  0
    0.3517   -4.8464   -1.4043 C   0  0  0  0  0  0  0  0  0  0  0  0
    1.2614   -4.2816   -0.4927 C   0  0  0  0  0  0  0  0  0  0  0  0
    0.9429   -3.1462    0.2718 C   0  0  0  0  0  0  0  0  0  0  0  0
   -2.6989   -2.5875   -0.8673 C   0  0  0  0  0  0  0  0  0  0  0  0
    0.7412   -6.0340   -2.2479 C   0  0  0  0  0  0  0  0  0  0  0  0
    1.9002   -2.5999    1.2927 C   0  0  0  0  0  0  0  0  0  0  0  0
    0.7295    2.0204    3.3880 C   0  0  0  0  0  0  0  0  0  0  0  0
   -0.3257    6.4430    1.1740 C   0  0  0  0  0  0  0  0  0  0  0  0
   -2.5694    2.2158   -0.4868 C   0  0  0  0  0  0  0  0  0  0  0  0
   -2.0908   -2.7484    2.6823 Cl  0  0  0  0  0  0  0  0  0  0  0  0
   -2.5704    0.6761    3.5317 Cl  0  0  0  0  0  0  0  0  0  0  0  0
   -1.6638   -4.7205   -2.1996 H   0  0  0  0  0  0  0  0  0  0  0  0
    2.2513   -4.7441   -0.3572 H   0  0  0  0  0  0  0  0  0  0  0  0
   -3.1946   -2.9310   -1.7941 H   0  0  0  0  0  0  0  0  0  0  0  0
   -2.7047   -1.4819   -0.8710 H   0  0  0  0  0  0  0  0  0  0  0  0
   -3.3085   -2.9358   -0.0065 H   0  0  0  0  0  0  0  0  0  0  0  0
    1.4998   -6.6627   -1.7422 H   0  0  0  0  0  0  0  0  0  0  0  0
    1.1802   -5.7037   -3.2138 H   0  0  0  0  0  0  0  0  0  0  0  0
   -0.1337   -6.6692   -2.4880 H   0  0  0  0  0  0  0  0  0  0  0  0
    1.4320   -2.5772    2.2994 H   0  0  0  0  0  0  0  0  0  0  0  0
    2.2019   -1.5563    1.0629 H   0  0  0  0  0  0  0  0  0  0  0  0
    2.8081   -3.2284    1.3534 H   0  0  0  0  0  0  0  0  0  0  0  0
    0.8223    4.6975    2.9409 H   0  0  0  0  0  0  0  0  0  0  0  0
   -1.9807    4.8712   -0.3494 H   0  0  0  0  0  0  0  0  0  0  0  0
    0.0386    1.8370    4.2381 H   0  0  0  0  0  0  0  0  0  0  0  0
    1.5972    2.5875    3.7735 H   0  0  0  0  0  0  0  0  0  0  0  0
    1.0983    1.0464    3.0181 H   0  0  0  0  0  0  0  0  0  0  0  0
   -0.2360    6.8997    2.1795 H   0  0  0  0  0  0  0  0  0  0  0  0
   -1.1597    6.9378    0.6401 H   0  0  0  0  0  0  0  0  0  0  0  0
    0.6094    6.6832    0.6243 H   0  0  0  0  0  0  0  0  0  0  0  0
   -3.2076    1.5112    0.0851 H   0  0  0  0  0  0  0  0  0  0  0  0
   -2.0891    1.6202   -1.2911 H   0  0  0  0  0  0  0  0  0  0  0  0
   -3.2276    2.9658   -0.9635 H   0  0  0  0  0  0  0  0  0  0  0  0
  1  2  1  0  0  0  0
  1  7  1  0  0  0  0
  2  3  1  0  0  0  0
  2  4  1  0  0  0  0
  4  5  1  0  0  0  0
  6  4  1  0  0  0  0
  7  8  1  0  0  0  0
  7  4  1  0  0  0  0
  8  2  1  0  0  0  0
  8  9  1  0  0  0  0
 10  8  1  0  0  0  0
  7 11  1  0  0  0  0
  7 12  1  0  0  0  0
 13 14  2  0  0  0  0
 13 18  1  0  0  0  0
 13 35  1  0  0  0  0
 14 15  1  0  0  0  0
 14 19  1  0  0  0  0
 15 16  2  0  0  0  0
 15 33  1  0  0  0  0
 16 17  1  0  0  0  0
 16 49  1  0  0  0  0
 17 18  2  0  0  0  0
 17 34  1  0  0  0  0
 18 50  1  0  0  0  0
 19 20  1  0  0  0  0
 19 23  1  0  0  0  0
 20 21  1  0  0  0  0
 21 22  1  0  0  0  0
 21 24  1  0  0  0  0
 22 23  2  0  0  0  0
 22 36  1  0  0  0  0
 23 37  1  0  0  0  0
 24 25  1  0  0  0  0
 24 29  2  0  0  0  0
 25 26  2  0  0  0  0
 25 30  1  0  0  0  0
 26 27  1  0  0  0  0
 26 38  1  0  0  0  0
 27 28  2  0  0  0  0
 27 31  1  0  0  0  0
 28 29  1  0  0  0  0
 28 39  1  0  0  0  0
 29 32  1  0  0  0  0
 30 40  1  0  0  0  0
 30 41  1  0  0  0  0
 30 42  1  0  0  0  0
 31 43  1  0  0  0  0
 31 44  1  0  0  0  0
 31 45  1  0  0  0  0
 32 46  1  0  0  0  0
 32 47  1  0  0  0  0
 32 48  1  0  0  0  0
 33 51  1  0  0  0  0
 33 52  1  0  0  0  0
 33 53  1  0  0  0  0
 34 54  1  0  0  0  0
 34 55  1  0  0  0  0
 34 56  1  0  0  0  0
 35 57  1  0  0  0  0
 35 58  1  0  0  0  0
 35 59  1  0  0  0  0
  7 20  1  0  0  0  0
M  END
>  <DFT-ENERGY>
-2974.51299446

$$$$
