DClIMes-2_A1
  CDK     08122417333D

 73 77  0  0  0  0  0  0  0  0999 V2000
    0.6829   -0.2762   -0.0611 Ru  0  0  0  0  0  0  0  0  0  0  0  0
    2.4607   -0.2762   -1.4503 O   0  0  0  0  0  0  0  0  0  0  0  0
    1.8931   -1.2095    0.9430 C   0  0  0  0  0  0  0  0  0  0  0  0
    1.6603   -1.5024    1.9657 H   0  0  0  0  0  0  0  0  0  0  0  0
    2.6962    0.4990   -2.6761 C   0  0  0  0  0  0  0  0  0  0  0  0
    3.1090   -0.2003   -3.4338 H   0  0  0  0  0  0  0  0  0  0  0  0
    1.2728    0.9341   -2.9945 C   0  0  0  0  0  0  0  0  0  0  0  0
    1.1998    1.4259   -3.9676 H   0  0  0  0  0  0  0  0  0  0  0  0
    0.8832    1.6344   -2.2277 H   0  0  0  0  0  0  0  0  0  0  0  0
    0.5877    0.0602   -2.9966 H   0  0  0  0  0  0  0  0  0  0  0  0
    3.6310    1.6472   -2.3417 C   0  0  0  0  0  0  0  0  0  0  0  0
    3.6248    2.4176   -3.1193 H   0  0  0  0  0  0  0  0  0  0  0  0
    4.6653    1.3211   -2.1904 H   0  0  0  0  0  0  0  0  0  0  0  0
    3.3100    2.1323   -1.3986 H   0  0  0  0  0  0  0  0  0  0  0  0
    3.4529   -1.0746   -0.9453 C   0  0  0  0  0  0  0  0  0  0  0  0
    4.6220   -1.4233   -1.5983 C   0  0  0  0  0  0  0  0  0  0  0  0
    4.8409   -1.0733   -2.6045 H   0  0  0  0  0  0  0  0  0  0  0  0
    5.5232   -2.2544   -0.9408 C   0  0  0  0  0  0  0  0  0  0  0  0
    6.4457   -2.5422   -1.4497 H   0  0  0  0  0  0  0  0  0  0  0  0
    5.2732   -2.7260    0.3445 C   0  0  0  0  0  0  0  0  0  0  0  0
    5.9979   -3.3709    0.8387 H   0  0  0  0  0  0  0  0  0  0  0  0
    4.1035   -2.3657    0.9861 C   0  0  0  0  0  0  0  0  0  0  0  0
    3.9103   -2.7203    1.9974 H   0  0  0  0  0  0  0  0  0  0  0  0
    3.1680   -1.5503    0.3467 C   0  0  0  0  0  0  0  0  0  0  0  0
    1.2751    1.8887    0.4923 Cl  0  0  0  0  0  0  0  0  0  0  0  0
   -0.1521   -2.0067   -1.4399 Cl  0  0  0  0  0  0  0  0  0  0  0  0
   -2.8995    0.3600   -1.6941 C   0  0  0  0  0  0  0  0  0  0  0  0
   -2.3472    1.0917   -0.6122 C   0  0  0  0  0  0  0  0  0  0  0  0
   -2.1184    2.4851   -0.7231 C   0  0  0  0  0  0  0  0  0  0  0  0
   -2.4238    3.1264   -1.9322 C   0  0  0  0  0  0  0  0  0  0  0  0
   -2.9585    2.4124   -3.0117 C   0  0  0  0  0  0  0  0  0  0  0  0
   -3.1929    1.0359   -2.8855 C   0  0  0  0  0  0  0  0  0  0  0  0
   -2.0977    0.4243    0.6448 N   0  0  0  0  0  0  0  0  0  0  0  0
   -0.9036   -0.2231    1.0715 C   0  0  0  0  0  0  0  0  0  0  0  0
   -1.2248   -0.6970    2.3592 N   0  0  0  0  0  0  0  0  0  0  0  0
   -2.5655   -0.3448    2.7120 C   0  0  0  0  0  0  0  0  0  0  0  0
   -3.1031    0.3457    1.6517 C   0  0  0  0  0  0  0  0  0  0  0  0
   -0.4049   -1.4438    3.2815 C   0  0  0  0  0  0  0  0  0  0  0  0
   -0.3171   -2.8504    3.1511 C   0  0  0  0  0  0  0  0  0  0  0  0
    0.4015   -3.5696    4.1138 C   0  0  0  0  0  0  0  0  0  0  0  0
    1.0336   -2.9107    5.1776 C   0  0  0  0  0  0  0  0  0  0  0  0
    0.9744   -1.5112    5.2695 C   0  0  0  0  0  0  0  0  0  0  0  0
    0.2654   -0.7614    4.3254 C   0  0  0  0  0  0  0  0  0  0  0  0
   -0.9468   -3.5396    1.9906 C   0  0  0  0  0  0  0  0  0  0  0  0
    1.7752   -3.6872    6.2155 C   0  0  0  0  0  0  0  0  0  0  0  0
    0.2291    0.7268    4.3982 C   0  0  0  0  0  0  0  0  0  0  0  0
   -1.5777    3.2992    0.4022 C   0  0  0  0  0  0  0  0  0  0  0  0
   -3.2931    3.1070   -4.2911 C   0  0  0  0  0  0  0  0  0  0  0  0
   -3.1938   -1.0981   -1.6041 C   0  0  0  0  0  0  0  0  0  0  0  0
   -3.2404   -0.7592    4.1926 Cl  0  0  0  0  0  0  0  0  0  0  0  0
   -4.6311    1.0155    1.4590 Cl  0  0  0  0  0  0  0  0  0  0  0  0
    0.4667   -4.6529    4.0319 H   0  0  0  0  0  0  0  0  0  0  0  0
    1.4854   -1.0026    6.0846 H   0  0  0  0  0  0  0  0  0  0  0  0
   -0.5783   -3.1170    1.0295 H   0  0  0  0  0  0  0  0  0  0  0  0
   -2.0402   -3.4198    1.9867 H   0  0  0  0  0  0  0  0  0  0  0  0
   -0.7363   -4.6159    1.9589 H   0  0  0  0  0  0  0  0  0  0  0  0
    1.2632   -3.6299    7.1883 H   0  0  0  0  0  0  0  0  0  0  0  0
    2.7928   -3.2976    6.3638 H   0  0  0  0  0  0  0  0  0  0  0  0
    1.8717   -4.7521    5.9660 H   0  0  0  0  0  0  0  0  0  0  0  0
   -0.7931    1.0971    4.5717 H   0  0  0  0  0  0  0  0  0  0  0  0
    0.5768    1.1782    3.4477 H   0  0  0  0  0  0  0  0  0  0  0  0
    0.8642    1.1349    5.1944 H   0  0  0  0  0  0  0  0  0  0  0  0
   -2.2447    4.1957   -2.0246 H   0  0  0  0  0  0  0  0  0  0  0  0
   -3.6116    0.4804   -3.7225 H   0  0  0  0  0  0  0  0  0  0  0  0
   -1.2492    2.7004    1.2656 H   0  0  0  0  0  0  0  0  0  0  0  0
   -2.3185    4.0244    0.7646 H   0  0  0  0  0  0  0  0  0  0  0  0
   -0.6810    3.8625    0.0891 H   0  0  0  0  0  0  0  0  0  0  0  0
   -2.9187    4.1384   -4.3278 H   0  0  0  0  0  0  0  0  0  0  0  0
   -4.3828    3.1536   -4.4382 H   0  0  0  0  0  0  0  0  0  0  0  0
   -2.8732    2.5800   -5.1599 H   0  0  0  0  0  0  0  0  0  0  0  0
   -2.7770   -1.5800   -0.7064 H   0  0  0  0  0  0  0  0  0  0  0  0
   -2.7464   -1.6470   -2.4520 H   0  0  0  0  0  0  0  0  0  0  0  0
   -4.2750   -1.2902   -1.6136 H   0  0  0  0  0  0  0  0  0  0  0  0
  1  2  1  0  0  0  0
  1  3  2  0  0  0  0
  3  4  1  0  0  0  0
  2  5  1  0  0  0  0
  5  6  1  0  0  0  0
  5  7  1  0  0  0  0
  7  8  1  0  0  0  0
  7  9  1  0  0  0  0
  7 10  1  0  0  0  0
  5 11  1  0  0  0  0
 11 12  1  0  0  0  0
 11 13  1  0  0  0  0
 11 14  1  0  0  0  0
  2 15  1  0  0  0  0
 15 24  1  0  0  0  0
 15 16  2  0  0  0  0
 16 17  1  0  0  0  0
 16 18  1  0  0  0  0
 18 19  1  0  0  0  0
 18 20  2  0  0  0  0
 20 21  1  0  0  0  0
 20 22  1  0  0  0  0
 22 24  2  0  0  0  0
 22 23  1  0  0  0  0
  3 24  1  0  0  0  0
  1 25  1  0  0  0  0
  1 26  1  0  0  0  0
 27 28  2  0  0  0  0
 27 32  1  0  0  0  0
 27 49  1  0  0  0  0
 28 29  1  0  0  0  0
 28 33  1  0  0  0  0
 29 30  2  0  0  0  0
 29 47  1  0  0  0  0
 30 31  1  0  0  0  0
 30 63  1  0  0  0  0
 31 32  2  0  0  0  0
 31 48  1  0  0  0  0
 32 64  1  0  0  0  0
 33 34  1  0  0  0  0
 33 37  1  0  0  0  0
 34 35  1  0  0  0  0
 35 36  1  0  0  0  0
 35 38  1  0  0  0  0
 36 37  2  0  0  0  0
 36 50  1  0  0  0  0
 37 51  1  0  0  0  0
 38 39  1  0  0  0  0
 38 43  2  0  0  0  0
 39 40  2  0  0  0  0
 39 44  1  0  0  0  0
 40 41  1  0  0  0  0
 40 52  1  0  0  0  0
 41 42  2  0  0  0  0
 41 45  1  0  0  0  0
 42 43  1  0  0  0  0
 42 53  1  0  0  0  0
 43 46  1  0  0  0  0
 44 54  1  0  0  0  0
 44 55  1  0  0  0  0
 44 56  1  0  0  0  0
 45 57  1  0  0  0  0
 45 58  1  0  0  0  0
 45 59  1  0  0  0  0
 46 60  1  0  0  0  0
 46 61  1  0  0  0  0
 46 62  1  0  0  0  0
 47 65  1  0  0  0  0
 47 66  1  0  0  0  0
 47 67  1  0  0  0  0
 48 68  1  0  0  0  0
 48 69  1  0  0  0  0
 48 70  1  0  0  0  0
 49 71  1  0  0  0  0
 49 72  1  0  0  0  0
 49 73  1  0  0  0  0
  1 34  1  0  0  0  0
M  END
> <FrozenCore-PM6_ENERGY>
39.596

> <RMSD_CONF_CG-CS>
3.023786

> <RMSD_CONF_GO-CS>
0.000000

> <UID>


> <DESCRIPTOR_DEFINITION_1>
desc1=( echo "1 * ( e( $hartree_to_kcalmol * ( ( $freeEnergyZ - $freeEnergyD ) - ( $freeEnergyX + 2*$G_Ethene - $freeEnergyD - 2*$G_Propene ) - $DDG_reference_HGII ) / $kT ) ) " | bc -l )

> <DESCRIPTOR_DEFINITION_2>
desc1=( echo "1 * ( e( $hartree_to_kcalmol * ( ( $freeEnergyZ - $freeEnergyD ) - ( $freeEnergyX + 2*$G_Ethene - $freeEnergyD - 2*$G_Propene ) - $DDG_reference_HGII ) / $kT ) ) " | bc -l )

> <DESCRIPTOR_DEFINITION_3>
desc1=( echo "1 * ( e( $hartree_to_kcalmol * ( ( $freeEnergyZ - $freeEnergyD ) - ( $freeEnergyX + 2*$G_Ethene - $freeEnergyD - 2*$G_Propene ) - $DDG_reference_HGII ) / $kT ) ) " | bc -l )

> <WEIGHT_DEFINITION_1>
w1=$( echo "1 / ( 1 + e( $hartree_to_kcalmol * ( ( ( $freeEnergyX + 2*$G_Ethene - $freeEnergyD - 2*$G_Propene ) ) - ( $DG_referenceProductionBarrier + $magnitude4 ) ) / $kT ) )" | bc -l )

> <WEIGHT_DEFINITION_2>
w1=$( echo "1 / ( 1 + e( $hartree_to_kcalmol * ( ( ( $freeEnergyX + 2*$G_Ethene - $freeEnergyD - 2*$G_Propene ) ) - ( $DG_referenceProductionBarrier + $magnitude4 ) ) / $kT ) )" | bc -l )

> <WEIGHT_DEFINITION_3>
w1=$( echo "1 / ( 1 + e( $hartree_to_kcalmol * ( ( ( $freeEnergyX + 2*$G_Ethene - $freeEnergyD - 2*$G_Propene ) ) - ( $DG_referenceProductionBarrier + $magnitude4 ) ) / $kT ) )" | bc -l )

> <WEIGHT_DEFINITION_4>
w1=$( echo "1 / ( 1 + e( $hartree_to_kcalmol * ( ( ( $freeEnergyX + 2*$G_Ethene - $freeEnergyD - 2*$G_Propene ) ) - ( $DG_referenceProductionBarrier + $magnitude4 ) ) / $kT ) )" | bc -l )

> <CALCULATION_OF_OVERALL_FITNESS>
fitness=$( echo "( $desc1 + $desc2 + $desc3 ) * ( $w1 * $w2 * $w3 * $w4 )" | bc -l )

> <freeEnergyA>
-3319.79154064

> <freeEnergyF>
-3319.77530681

> <freeEnergyE>
-3319.79154064

> <freeEnergyC>
-2974.53453104

> <freeEnergyL>
-1841.93263706

> <freeEnergyX>
-3053.06924307

> <freeEnergyZ>
-2974.51299438

> <freeEnergyD>
-2974.55761513

> <G_Propene>
-117.738020895

> <G_Ethene>
-78.4716324751

> <G_HoveydaProd>
-502.204109499

> <G_SIMes>
-924.27249048

> <G_HG_RuCl2_SIMes>
-2402.13728523

> <DG_referenceProductionBarrier>
0.01468968

> <DG_referencePrecursorStabilityHII>
-0.0052201621

> <DG_referencePrecursorStabilityHI>
0.0117775312

> <DDG_referencePrecursorStability>
.0169976933

> <DG_referenceSynt>
0.0226072217

> <hartree_to_kcalmol>
627.49467516

> <boltzmann_constant>
0.0000000000000000000000138066

> <avogadro_number>
602214000000000000000000

> <jmol_to_kcalmol>
0.00023901

> <temp>
313.15

> <kT>
.6223089948281258706000000000

> <magnitude1>
1.43290809

> <magnitude2>
2.86581618

> <magnitude3>
4.29872427

> <magnitude4>
5.73163236

> <DFT_IDENTIFIER>
1723552479372

> <DFT_MACHINE>
158.39.114.73

> <XTB_IDENTIFIER>
NREC

> <XTB_MACHINE>
NREC

> <DESCRIPTOR_1>
3.49347006046110084353

> <DESCRIPTOR_2>
14.728461016653181032

> <DESCRIPTOR_3>
.704378460233979000

> <WEIGHT_1>
.99996775600677401599

> <WEIGHT_2>
.99999998544229151183

> <WEIGHT_3>
.99999999521562861785

> <WEIGHT_4>
.99999222020025419388

> <FITNESS>
18.92555167334177922331

$$$$
