 
  -MOLDEN-
Molden generated mol file
 46 50  0  0  0  0  0  0  0  0999 V2000
    1.8944    1.1654   -0.2292 RU  0  0  0  0  0  0  0  0  0  0  0  0
    3.5458    1.4707   -1.2205 C   0  0  0  0  0  0  0  0  0  0  0  0
    3.4459    1.8198   -2.2634 H   0  0  0  0  0  0  0  0  0  0  0  0
    3.5400    2.6721   -0.1689 C   0  0  0  0  0  0  0  0  0  0  0  0
    3.5798    3.5839   -0.7931 H   0  0  0  0  0  0  0  0  0  0  0  0
    2.2683    2.8347    0.7371 C   0  0  0  0  0  0  0  0  0  0  0  0
    2.4740    2.7008    1.8142 H   0  0  0  0  0  0  0  0  0  0  0  0
    1.6391    3.6989    0.4609 H   0  0  0  0  0  0  0  0  0  0  0  0
    4.4076    2.5153    0.4971 H   0  0  0  0  0  0  0  0  0  0  0  0
    4.3556    0.7460   -1.0184 H   0  0  0  0  0  0  0  0  0  0  0  0
    0.7682    2.5003   -1.8726 CL  0  0  0  0  0  0  0  0  0  0  0  0
    3.1076   -0.0339    1.4444 CL  0  0  0  0  0  0  0  0  0  0  0  0
    0.0337   -0.2347   -0.2258 P   0  0  0  0  0  0  0  0  0  0  0  0
   -0.9980   -4.2105    0.1315 C   0  0  0  0  0  0  0  0  0  0  0  0
   -1.2773   -0.0601   -1.4966 C   0  0  0  0  0  0  0  0  0  0  0  0
    1.3397   -2.6664    0.3959 C   0  0  0  0  0  0  0  0  0  0  0  0
   -1.0493   -2.8284   -0.0896 C   0  0  0  0  0  0  0  0  0  0  0  0
   -0.5871    0.5571    1.3059 C   0  0  0  0  0  0  0  0  0  0  0  0
    0.1205   -2.0513    0.0527 C   0  0  0  0  0  0  0  0  0  0  0  0
   -2.6247    0.1304   -1.1397 C   0  0  0  0  0  0  0  0  0  0  0  0
    1.3790   -4.0530    0.6092 C   0  0  0  0  0  0  0  0  0  0  0  0
   -0.4863   -0.0991    2.5478 C   0  0  0  0  0  0  0  0  0  0  0  0
   -0.9171   -0.1918   -2.8511 C   0  0  0  0  0  0  0  0  0  0  0  0
   -1.3962    2.5624    2.4130 C   0  0  0  0  0  0  0  0  0  0  0  0
   -0.8545    0.5784    3.7166 C   0  0  0  0  0  0  0  0  0  0  0  0
   -3.6093    0.1838   -2.1390 C   0  0  0  0  0  0  0  0  0  0  0  0
   -3.2513    0.0441   -3.4876 C   0  0  0  0  0  0  0  0  0  0  0  0
   -1.9050   -0.1439   -3.8417 C   0  0  0  0  0  0  0  0  0  0  0  0
   -1.0318    1.8964    1.2345 C   0  0  0  0  0  0  0  0  0  0  0  0
   -1.3086    1.9063    3.6510 C   0  0  0  0  0  0  0  0  0  0  0  0
    0.2158   -4.8253    0.4798 C   0  0  0  0  0  0  0  0  0  0  0  0
   -1.9124   -4.8118    0.0239 H   0  0  0  0  0  0  0  0  0  0  0  0
    2.2419   -2.0494    0.5221 H   0  0  0  0  0  0  0  0  0  0  0  0
   -1.9971   -2.3547   -0.3804 H   0  0  0  0  0  0  0  0  0  0  0  0
   -2.9044    0.2442   -0.0826 H   0  0  0  0  0  0  0  0  0  0  0  0
    2.3327   -4.5294    0.8785 H   0  0  0  0  0  0  0  0  0  0  0  0
   -0.1099   -1.1302    2.5938 H   0  0  0  0  0  0  0  0  0  0  0  0
    0.1403   -0.3091   -3.1262 H   0  0  0  0  0  0  0  0  0  0  0  0
   -1.7429    3.6046    2.3620 H   0  0  0  0  0  0  0  0  0  0  0  0
   -0.7786    0.0684    4.6876 H   0  0  0  0  0  0  0  0  0  0  0  0
   -4.6614    0.3371   -1.8585 H   0  0  0  0  0  0  0  0  0  0  0  0
   -4.0238    0.0892   -4.2689 H   0  0  0  0  0  0  0  0  0  0  0  0
   -1.6204   -0.2395   -4.8992 H   0  0  0  0  0  0  0  0  0  0  0  0
   -1.0677    2.4075    0.2603 H   0  0  0  0  0  0  0  0  0  0  0  0
   -1.5906    2.4348    4.5734 H   0  0  0  0  0  0  0  0  0  0  0  0
    0.2532   -5.9119    0.6457 H   0  0  0  0  0  0  0  0  0  0  0  0
  1  2  1  0  0  0  0
  1  4  1  0  0  0  0
  1  6  1  0  0  0  0
  1 11  1  0  0  0  0
  1 12  1  0  0  0  0
  1 13  1  0  0  0  0
  2  3  1  0  0  0  0
  2  4  1  0  0  0  0
  2 10  1  0  0  0  0
  4  5  1  0  0  0  0
  4  6  1  0  0  0  0
  4  9  1  0  0  0  0
  6  7  1  0  0  0  0
  6  8  1  0  0  0  0
 13 15  1  0  0  0  0
 13 18  1  0  0  0  0
 13 19  1  0  0  0  0
 14 17  2  0  0  0  0
 14 31  2  0  0  0  0
 14 32  1  0  0  0  0
 15 20  2  0  0  0  0
 15 23  2  0  0  0  0
 16 19  2  0  0  0  0
 16 21  2  0  0  0  0
 16 33  1  0  0  0  0
 17 19  2  0  0  0  0
 17 34  1  0  0  0  0
 18 22  1  0  0  0  0
 18 29  1  0  0  0  0
 20 26  2  0  0  0  0
 20 35  1  0  0  0  0
 21 31  2  0  0  0  0
 21 36  1  0  0  0  0
 22 25  2  0  0  0  0
 22 37  1  0  0  0  0
 23 28  2  0  0  0  0
 23 38  1  0  0  0  0
 24 29  2  0  0  0  0
 24 30  2  0  0  0  0
 24 39  1  0  0  0  0
 25 30  2  0  0  0  0
 25 40  1  0  0  0  0
 26 27  2  0  0  0  0
 26 41  1  0  0  0  0
 27 28  2  0  0  0  0
 27 42  1  0  0  0  0
 28 43  1  0  0  0  0
 29 44  1  0  0  0  0
 30 45  1  0  0  0  0
 31 46  1  0  0  0  0
M  END
>  <DFT-ENERGY>
-2167.89988583

$$$$
