
  CDK     08132411273D

 43 43  0  0  0  0  0  0  0  0999 V2000
    1.7171   -0.9090   -0.2489 Ru  0  0  0  0  0  0  0  0  0  0  0  0
    2.8680   -1.3656   -1.7611 C   0  0  0  0  0  0  0  0  0  0  0  0
    2.4581   -2.1009   -2.4778 H   0  0  0  0  0  0  0  0  0  0  0  0
    3.6119   -2.0521   -0.5437 C   0  0  0  0  0  0  0  0  0  0  0  0
    3.6308   -3.1341   -0.7697 H   0  0  0  0  0  0  0  0  0  0  0  0
    2.9543   -1.9142    0.8857 C   0  0  0  0  0  0  0  0  0  0  0  0
    3.5617   -1.3090    1.5833 H   0  0  0  0  0  0  0  0  0  0  0  0
    2.5727   -2.8754    1.2761 H   0  0  0  0  0  0  0  0  0  0  0  0
    4.6037   -1.5679   -0.4770 H   0  0  0  0  0  0  0  0  0  0  0  0
    3.4426   -0.5275   -2.1964 H   0  0  0  0  0  0  0  0  0  0  0  0
    0.4767   -2.9292   -0.6228 Cl  0  0  0  0  0  0  0  0  0  0  0  0
    3.0454    1.0360    0.1164 Cl  0  0  0  0  0  0  0  0  0  0  0  0
   -0.3573    0.1918    0.0397 P   0  0  0  0  0  0  0  0  0  0  0  0
   -1.1925   -0.4834    1.5920 C   0  0  0  0  0  0  0  0  0  0  0  0
   -1.7397    0.3948    1.9999 H   0  0  0  0  0  0  0  0  0  0  0  0
   -2.1832   -1.6200    1.3280 C   0  0  0  0  0  0  0  0  0  0  0  0
   -1.6745   -2.4759    0.8416 H   0  0  0  0  0  0  0  0  0  0  0  0
   -2.5955   -1.9685    2.2979 H   0  0  0  0  0  0  0  0  0  0  0  0
    0.2165    2.4759    1.6136 C   0  0  0  0  0  0  0  0  0  0  0  0
    0.1243    3.5762    1.7254 H   0  0  0  0  0  0  0  0  0  0  0  0
   -0.2700    2.0145    2.4950 H   0  0  0  0  0  0  0  0  0  0  0  0
   -1.4500   -0.2066   -1.4321 C   0  0  0  0  0  0  0  0  0  0  0  0
   -1.6907   -1.2721   -1.2369 H   0  0  0  0  0  0  0  0  0  0  0  0
   -0.4346    2.0521    0.2906 C   0  0  0  0  0  0  0  0  0  0  0  0
    0.1601    2.8130   -0.9002 C   0  0  0  0  0  0  0  0  0  0  0  0
   -0.1108   -0.9192    2.5948 C   0  0  0  0  0  0  0  0  0  0  0  0
   -0.5747   -1.1408    3.5779 H   0  0  0  0  0  0  0  0  0  0  0  0
    0.3840   -1.8428    2.2335 H   0  0  0  0  0  0  0  0  0  0  0  0
   -0.6579   -0.1593   -2.7461 C   0  0  0  0  0  0  0  0  0  0  0  0
   -0.2830    0.8554   -2.9819 H   0  0  0  0  0  0  0  0  0  0  0  0
    0.2030   -0.8549   -2.7083 H   0  0  0  0  0  0  0  0  0  0  0  0
   -2.7346    0.6252   -1.4813 C   0  0  0  0  0  0  0  0  0  0  0  0
   -3.2982    0.5962   -0.5273 H   0  0  0  0  0  0  0  0  0  0  0  0
   -3.4016    0.2285   -2.2746 H   0  0  0  0  0  0  0  0  0  0  0  0
   -2.5309    1.6871   -1.7254 H   0  0  0  0  0  0  0  0  0  0  0  0
   -3.0373   -1.3056    0.6979 H   0  0  0  0  0  0  0  0  0  0  0  0
   -1.3125   -0.4804   -3.5826 H   0  0  0  0  0  0  0  0  0  0  0  0
   -1.5287    2.2543    0.3487 H   0  0  0  0  0  0  0  0  0  0  0  0
    0.6679   -0.1467    2.7480 H   0  0  0  0  0  0  0  0  0  0  0  0
   -0.3906    2.6212   -1.8410 H   0  0  0  0  0  0  0  0  0  0  0  0
    1.2241    2.5384   -1.0428 H   0  0  0  0  0  0  0  0  0  0  0  0
    0.1094    3.9037   -0.7017 H   0  0  0  0  0  0  0  0  0  0  0  0
    1.2935    2.2170    1.6169 H   0  0  0  0  0  0  0  0  0  0  0  0
  2  4  1  0  0  0  0
  2  1  1  0  0  0  0
  2  3  1  0  0  0  0
  4  6  1  0  0  0  0
  4  5  1  0  0  0  0
  6  1  1  0  0  0  0
  6  8  1  0  0  0  0
  7  6  1  0  0  0  0
  9  4  1  0  0  0  0
 10  2  1  0  0  0  0
  1 11  1  0  0  0  0
  1 12  1  0  0  0  0
 13 14  1  0  0  0  0
 13 22  1  0  0  0  0
 13 24  1  0  0  0  0
 14 15  1  0  0  0  0
 14 16  1  0  0  0  0
 14 26  1  0  0  0  0
 16 17  1  0  0  0  0
 16 18  1  0  0  0  0
 19 20  1  0  0  0  0
 19 21  1  0  0  0  0
 19 24  1  0  0  0  0
 22 23  1  0  0  0  0
 22 29  1  0  0  0  0
 22 32  1  0  0  0  0
 24 25  1  0  0  0  0
 26 27  1  0  0  0  0
 26 28  1  0  0  0  0
 29 30  1  0  0  0  0
 29 31  1  0  0  0  0
 32 33  1  0  0  0  0
 32 34  1  0  0  0  0
 35 32  1  0  0  0  0
 36 16  1  0  0  0  0
 37 29  1  0  0  0  0
 38 24  1  0  0  0  0
 39 26  1  0  0  0  0
 40 25  1  0  0  0  0
 41 25  1  0  0  0  0
 42 25  1  0  0  0  0
 43 19  1  0  0  0  0
  1 13  1  0  0  0  0
M  END
>  <DFT-ENERGY>
-1828.91054302

$$$$
