LOVPET_A1
  CDK     04192410253D

 78 82  0  0  0  0  0  0  0  0999 V2000
   -1.4685    0.6953   -0.1029 Ru  0  0  0  0  0  0  0  0  0  0  0  0
   -3.2429    0.8048   -1.4921 O   0  0  0  0  0  0  0  0  0  0  0  0
   -2.6189    1.7015    0.9012 C   0  0  0  0  0  0  0  0  0  0  0  0
   -2.3685    1.9794    1.9239 H   0  0  0  0  0  0  0  0  0  0  0  0
   -3.5257    0.0457   -2.7179 C   0  0  0  0  0  0  0  0  0  0  0  0
   -3.8916    0.7652   -3.4806 H   0  0  0  0  0  0  0  0  0  0  0  0
   -2.1337   -0.4832   -3.0394 C   0  0  0  0  0  0  0  0  0  0  0  0
   -2.1024   -0.9834   -4.0111 H   0  0  0  0  0  0  0  0  0  0  0  0
   -1.7961   -1.2063   -2.2720 H   0  0  0  0  0  0  0  0  0  0  0  0
   -1.3988    0.3464   -3.0536 H   0  0  0  0  0  0  0  0  0  0  0  0
   -4.5325   -1.0425   -2.3886 C   0  0  0  0  0  0  0  0  0  0  0  0
   -4.2426   -1.5525   -1.4491 H   0  0  0  0  0  0  0  0  0  0  0  0
   -4.5790   -1.8065   -3.1709 H   0  0  0  0  0  0  0  0  0  0  0  0
   -5.5427   -0.6500   -2.2330 H   0  0  0  0  0  0  0  0  0  0  0  0
   -4.1841    1.6628   -0.9871 C   0  0  0  0  0  0  0  0  0  0  0  0
   -5.3295    2.0829   -1.6401 C   0  0  0  0  0  0  0  0  0  0  0  0
   -5.5689    1.7466   -2.6463 H   0  0  0  0  0  0  0  0  0  0  0  0
   -6.1778    2.9679   -0.9826 C   0  0  0  0  0  0  0  0  0  0  0  0
   -7.0810    3.3122   -1.4913 H   0  0  0  0  0  0  0  0  0  0  0  0
   -5.8992    3.4233    0.3027 C   0  0  0  0  0  0  0  0  0  0  0  0
   -6.5829    4.1115    0.7969 H   0  0  0  0  0  0  0  0  0  0  0  0
   -4.7539    2.9916    0.9443 C   0  0  0  0  0  0  0  0  0  0  0  0
   -4.5392    3.3336    1.9556 H   0  0  0  0  0  0  0  0  0  0  0  0
   -3.8704    2.1201    0.3049 C   0  0  0  0  0  0  0  0  0  0  0  0
   -2.1986   -1.4454    0.4548 Cl  0  0  0  0  0  0  0  0  0  0  0  0
   -0.5407    2.3493   -1.4637 Cl  0  0  0  0  0  0  0  0  0  0  0  0
    0.2280    0.6637    1.3295 P   0  0  0  0  0  0  0  0  0  0  0  0
    1.7844    0.0276    0.3936 C   0  0  0  0  0  0  0  0  0  0  0  0
    2.3910   -0.5832    1.1095 H   0  0  0  0  0  0  0  0  0  0  0  0
    1.2760   -0.8754   -0.7444 C   0  0  0  0  0  0  0  0  0  0  0  0
    0.5803   -1.6638   -0.3810 H   0  0  0  0  0  0  0  0  0  0  0  0
    0.7149   -0.2778   -1.5093 H   0  0  0  0  0  0  0  0  0  0  0  0
    0.4364    3.4937    1.3708 C   0  0  0  0  0  0  0  0  0  0  0  0
    1.1110    3.4590    0.4886 H   0  0  0  0  0  0  0  0  0  0  0  0
   -0.5956    3.5161    0.9497 H   0  0  0  0  0  0  0  0  0  0  0  0
    3.4333   -0.4687   -2.0060 C   0  0  0  0  0  0  0  0  0  0  0  0
    2.9362    0.0888   -2.8246 H   0  0  0  0  0  0  0  0  0  0  0  0
    4.3174   -0.9545   -2.4581 H   0  0  0  0  0  0  0  0  0  0  0  0
    0.0394   -0.6667    2.7136 C   0  0  0  0  0  0  0  0  0  0  0  0
   -0.2197   -1.6273    2.1858 H   0  0  0  0  0  0  0  0  0  0  0  0
    0.6438    2.2803    2.2873 C   0  0  0  0  0  0  0  0  0  0  0  0
   -0.1021    2.3383    3.1237 H   0  0  0  0  0  0  0  0  0  0  0  0
    2.6702    1.1350   -0.1858 C   0  0  0  0  0  0  0  0  0  0  0  0
    2.0969    1.7660   -0.9024 H   0  0  0  0  0  0  0  0  0  0  0  0
    3.0385    1.8210    0.6108 H   0  0  0  0  0  0  0  0  0  0  0  0
    2.0799    4.8253    2.7757 C   0  0  0  0  0  0  0  0  0  0  0  0
    2.8528    4.8479    1.9834 H   0  0  0  0  0  0  0  0  0  0  0  0
    2.2147    5.7539    3.3608 H   0  0  0  0  0  0  0  0  0  0  0  0
    3.8766    0.5142   -0.9125 C   0  0  0  0  0  0  0  0  0  0  0  0
    4.4927    1.3170   -1.3596 H   0  0  0  0  0  0  0  0  0  0  0  0
    4.5282   -0.0049   -0.1847 H   0  0  0  0  0  0  0  0  0  0  0  0
    2.4745   -1.5334   -1.4528 C   0  0  0  0  0  0  0  0  0  0  0  0
    3.0107   -2.1979   -0.7494 H   0  0  0  0  0  0  0  0  0  0  0  0
    2.1156   -2.1820   -2.2736 H   0  0  0  0  0  0  0  0  0  0  0  0
    0.6848    4.8036    2.1377 C   0  0  0  0  0  0  0  0  0  0  0  0
   -0.0879    4.9365    2.9181 H   0  0  0  0  0  0  0  0  0  0  0  0
    0.5715    5.6611    1.4469 H   0  0  0  0  0  0  0  0  0  0  0  0
    2.0474    2.2930    2.9044 C   0  0  0  0  0  0  0  0  0  0  0  0
    2.1876    1.4354    3.6018 H   0  0  0  0  0  0  0  0  0  0  0  0
    2.8293    2.1930    2.1145 H   0  0  0  0  0  0  0  0  0  0  0  0
   -1.1411   -0.2964    3.6204 C   0  0  0  0  0  0  0  0  0  0  0  0
   -0.9784    0.6753    4.1266 H   0  0  0  0  0  0  0  0  0  0  0  0
   -2.0758   -0.2052    3.0182 H   0  0  0  0  0  0  0  0  0  0  0  0
    1.3209   -0.9017    3.5194 C   0  0  0  0  0  0  0  0  0  0  0  0
    1.6555    0.0335    4.0271 H   0  0  0  0  0  0  0  0  0  0  0  0
    2.1556   -1.2130    2.8565 H   0  0  0  0  0  0  0  0  0  0  0  0
    2.2908    3.6009    3.6756 C   0  0  0  0  0  0  0  0  0  0  0  0
    3.3173    3.6060    4.0873 H   0  0  0  0  0  0  0  0  0  0  0  0
    1.6109    3.6559    4.5473 H   0  0  0  0  0  0  0  0  0  0  0  0
   -0.0805   -1.6316    5.5036 C   0  0  0  0  0  0  0  0  0  0  0  0
    0.1670   -0.7337    6.1008 H   0  0  0  0  0  0  0  0  0  0  0  0
   -0.2509   -2.4468    6.2314 H   0  0  0  0  0  0  0  0  0  0  0  0
    1.0957   -1.9883    4.5844 C   0  0  0  0  0  0  0  0  0  0  0  0
    0.9007   -2.9607    4.0912 H   0  0  0  0  0  0  0  0  0  0  0  0
    2.0159   -2.1256    5.1814 H   0  0  0  0  0  0  0  0  0  0  0  0
   -1.3570   -1.3819    4.6899 C   0  0  0  0  0  0  0  0  0  0  0  0
   -2.1849   -1.0872    5.3607 H   0  0  0  0  0  0  0  0  0  0  0  0
   -1.6815   -2.3219    4.2000 H   0  0  0  0  0  0  0  0  0  0  0  0
  1  2  1  0  0  0  0
  1  3  2  0  0  0  0
  3  4  1  0  0  0  0
  2  5  1  0  0  0  0
  5  6  1  0  0  0  0
  5  7  1  0  0  0  0
  7  8  1  0  0  0  0
  7  9  1  0  0  0  0
  7 10  1  0  0  0  0
  5 11  1  0  0  0  0
 11 12  1  0  0  0  0
 11 13  1  0  0  0  0
 11 14  1  0  0  0  0
  2 15  1  0  0  0  0
 15 24  1  0  0  0  0
 15 16  2  0  0  0  0
 16 17  1  0  0  0  0
 16 18  1  0  0  0  0
 18 19  1  0  0  0  0
 18 20  2  0  0  0  0
 20 21  1  0  0  0  0
 20 22  1  0  0  0  0
 22 24  2  0  0  0  0
 22 23  1  0  0  0  0
  3 24  1  0  0  0  0
  1 25  1  0  0  0  0
  1 26  1  0  0  0  0
 27 28  1  0  0  0  0
 28 29  1  0  0  0  0
 28 30  1  0  0  0  0
 30 31  1  0  0  0  0
 30 32  1  0  0  0  0
 33 34  1  0  0  0  0
 33 35  1  0  0  0  0
 36 37  1  0  0  0  0
 36 38  1  0  0  0  0
 27 39  1  0  0  0  0
 39 40  1  0  0  0  0
 27 41  1  0  0  0  0
 41 42  1  0  0  0  0
 28 43  1  0  0  0  0
 43 44  1  0  0  0  0
 43 45  1  0  0  0  0
 46 47  1  0  0  0  0
 46 48  1  0  0  0  0
 36 49  1  0  0  0  0
 49 50  1  0  0  0  0
 49 51  1  0  0  0  0
 30 52  1  0  0  0  0
 52 53  1  0  0  0  0
 52 54  1  0  0  0  0
 33 55  1  0  0  0  0
 55 56  1  0  0  0  0
 55 57  1  0  0  0  0
 41 58  1  0  0  0  0
 58 59  1  0  0  0  0
 58 60  1  0  0  0  0
 39 61  1  0  0  0  0
 61 62  1  0  0  0  0
 61 63  1  0  0  0  0
 39 64  1  0  0  0  0
 64 65  1  0  0  0  0
 64 66  1  0  0  0  0
 46 67  1  0  0  0  0
 67 68  1  0  0  0  0
 67 69  1  0  0  0  0
 70 71  1  0  0  0  0
 70 72  1  0  0  0  0
 64 73  1  0  0  0  0
 73 74  1  0  0  0  0
 73 75  1  0  0  0  0
 61 76  1  0  0  0  0
 76 77  1  0  0  0  0
 76 78  1  0  0  0  0
 33 41  1  0  0  0  0
 36 52  1  0  0  0  0
 43 49  1  0  0  0  0
 46 55  1  0  0  0  0
 58 67  1  0  0  0  0
 70 73  1  0  0  0  0
 70 76  1  0  0  0  0
  1 27  1  0  0  0  0
M  END
> <FrozenCore-PM6_ENERGY>
103.556

> <RMSD_CONF_CG-CS>
0.587324

> <RMSD_CONF_GO-CS>
0.000000

> <UID>


> <DESCRIPTOR_DEFINITION_1>
desc1=( echo "1 * ( e( $hartree_to_kcalmol * ( ( $freeEnergyZ - $freeEnergyD ) - ( $freeEnergyX + 2*$G_Ethene - $freeEnergyD - 2*$G_Propene ) - $DDG_reference_HGII ) / $kT ) ) " | bc -l )

> <DESCRIPTOR_DEFINITION_2>
desc1=( echo "1 * ( e( $hartree_to_kcalmol * ( ( $freeEnergyZ - $freeEnergyD ) - ( $freeEnergyX + 2*$G_Ethene - $freeEnergyD - 2*$G_Propene ) - $DDG_reference_HGII ) / $kT ) ) " | bc -l )

> <DESCRIPTOR_DEFINITION_3>
desc1=( echo "1 * ( e( $hartree_to_kcalmol * ( ( $freeEnergyZ - $freeEnergyD ) - ( $freeEnergyX + 2*$G_Ethene - $freeEnergyD - 2*$G_Propene ) - $DDG_reference_HGII ) / $kT ) ) " | bc -l )

> <WEIGHT_DEFINITION_1>
w1=$( echo "1 / ( 1 + e( $hartree_to_kcalmol * ( ( ( $freeEnergyX + 2*$G_Ethene - $freeEnergyD - 2*$G_Propene ) ) - ( $DG_referenceProductionBarrier + $magnitude4 ) ) / $kT ) )" | bc -l )

> <WEIGHT_DEFINITION_2>
w1=$( echo "1 / ( 1 + e( $hartree_to_kcalmol * ( ( ( $freeEnergyX + 2*$G_Ethene - $freeEnergyD - 2*$G_Propene ) ) - ( $DG_referenceProductionBarrier + $magnitude4 ) ) / $kT ) )" | bc -l )

> <WEIGHT_DEFINITION_3>
w1=$( echo "1 / ( 1 + e( $hartree_to_kcalmol * ( ( ( $freeEnergyX + 2*$G_Ethene - $freeEnergyD - 2*$G_Propene ) ) - ( $DG_referenceProductionBarrier + $magnitude4 ) ) / $kT ) )" | bc -l )

> <WEIGHT_DEFINITION_4>
w1=$( echo "1 / ( 1 + e( $hartree_to_kcalmol * ( ( ( $freeEnergyX + 2*$G_Ethene - $freeEnergyD - 2*$G_Propene ) ) - ( $DG_referenceProductionBarrier + $magnitude4 ) ) / $kT ) )" | bc -l )

> <CALCULATION_OF_OVERALL_FITNESS>
fitness=$( echo "( $desc1 + $desc2 + $desc3 ) * ( $w1 * $w2 * $w3 * $w4 )" | bc -l )

> <freeEnergyA>
-2523.95662986

> <freeEnergyF>
-2523.93682433

> <freeEnergyE>
-2523.95662986

> <freeEnergyC>
-2178.68225454

> <freeEnergyL>
-1046.11468472

> <freeEnergyX>
-2257.21505584

> <freeEnergyZ>
-2178.67498584

> <freeEnergyD>
-2178.70414523

> <G_Propene>
-117.738020895

> <G_Ethene>
-78.4716324751

> <G_HoveydaProd>
-502.204109499

> <G_SIMes>
-924.27249048

> <G_HG_RuCl2_SIMes>
-2402.13728523

> <DG_referenceProductionBarrier>
0.01468968

> <DG_referencePrecursorStabilityHII>
-0.0052201621

> <DG_referencePrecursorStabilityHI>
0.0117775312

> <DDG_referencePrecursorStability>
.0169976933

> <DG_referenceSynt>
0.0226072217

> <hartree_to_kcalmol>
627.49467516

> <boltzmann_constant>
0.0000000000000000000000138066

> <avogadro_number>
602214000000000000000000

> <jmol_to_kcalmol>
0.00023901

> <temp>
313.15

> <kT>
.6223089948281258706000000000

> <magnitude1>
1.43290809

> <magnitude2>
2.86581618

> <magnitude3>
4.29872427

> <magnitude4>
5.73163236

> <DFT_IDENTIFIER>
1713583046879

> <DFT_MACHINE>
158.36.42.38

> <XTB_IDENTIFIER>
1713582092697

> <XTB_MACHINE>
158.36.42.38

> <DESCRIPTOR_1>
.00000028733675078514

> <DESCRIPTOR_2>
4.576419190588840632

> <DESCRIPTOR_3>
.254257704901456200

> <WEIGHT_1>
.99993353968261085019

> <WEIGHT_2>
.63058265126710686237

> <WEIGHT_3>
.88676942586245767727

> <WEIGHT_4>
.99999978773604170790

> <FITNESS>
2.70104480791161080245

$$$$
