
  CDK     02062401233D

 64 68  0  0  0  0  0  0  0  0999 V2000
    0.2588   -1.1413   -3.5199 H   0  0  0  0  0  0  0  0  0  0  0  0
    0.3771   -2.3594   -3.6473 C   0  0  0  0  0  0  0  0  0  0  0  0
    1.0121   -2.1000   -4.5301 H   0  0  0  0  0  0  0  0  0  0  0  0
    0.9427   -2.6308   -2.3079 C   0  0  0  0  0  0  0  0  0  0  0  0
    0.7647   -3.6325   -1.8875 H   0  0  0  0  0  0  0  0  0  0  0  0
    1.9179   -2.1844   -2.0577 H   0  0  0  0  0  0  0  0  0  0  0  0
   -0.7715   -1.4191   -2.1030 Ru  0  0  0  0  0  0  0  0  0  0  0  0
   -0.9789   -2.8623   -3.7858 C   0  0  0  0  0  0  0  0  0  0  0  0
   -1.2354   -3.8280   -3.3286 H   0  0  0  0  0  0  0  0  0  0  0  0
   -1.5719   -2.5455   -4.6581 H   0  0  0  0  0  0  0  0  0  0  0  0
   -1.6475   -3.0534   -0.6931 Cl  0  0  0  0  0  0  0  0  0  0  0  0
   -1.2470    0.5614   -3.2823 Cl  0  0  0  0  0  0  0  0  0  0  0  0
   -0.3014   -0.0288   -0.2325 P   0  0  0  0  0  0  0  0  0  0  0  0
   -1.7810    0.9693    0.4015 C   0  0  0  0  0  0  0  0  0  0  0  0
   -1.5900    1.1345    1.4869 H   0  0  0  0  0  0  0  0  0  0  0  0
   -1.9839    2.3461   -0.2576 C   0  0  0  0  0  0  0  0  0  0  0  0
   -1.0926    2.9891   -0.1174 H   0  0  0  0  0  0  0  0  0  0  0  0
   -2.1136    2.2098   -1.3516 H   0  0  0  0  0  0  0  0  0  0  0  0
    1.4475   -1.8713    1.0172 C   0  0  0  0  0  0  0  0  0  0  0  0
    0.9620   -2.6958    0.4545 H   0  0  0  0  0  0  0  0  0  0  0  0
    2.2241   -1.4435    0.3514 H   0  0  0  0  0  0  0  0  0  0  0  0
   -4.4834    2.2067    0.1852 C   0  0  0  0  0  0  0  0  0  0  0  0
   -4.7163    2.0785   -0.8957 H   0  0  0  0  0  0  0  0  0  0  0  0
   -5.3529    2.7276    0.6378 H   0  0  0  0  0  0  0  0  0  0  0  0
    0.9633    1.2980   -0.6770 C   0  0  0  0  0  0  0  0  0  0  0  0
    0.3594    1.9506   -1.3453 H   0  0  0  0  0  0  0  0  0  0  0  0
    0.3736   -0.8185    1.3423 C   0  0  0  0  0  0  0  0  0  0  0  0
    0.8598    0.0270    1.8803 H   0  0  0  0  0  0  0  0  0  0  0  0
   -3.0561    0.1164    0.2468 C   0  0  0  0  0  0  0  0  0  0  0  0
   -3.2124   -0.0747   -0.8397 H   0  0  0  0  0  0  0  0  0  0  0  0
   -2.9267   -0.8802    0.7097 H   0  0  0  0  0  0  0  0  0  0  0  0
    1.0413   -3.0019    3.2461 C   0  0  0  0  0  0  0  0  0  0  0  0
    0.5603   -3.8831    2.7655 H   0  0  0  0  0  0  0  0  0  0  0  0
    1.5178   -3.3687    4.1792 H   0  0  0  0  0  0  0  0  0  0  0  0
   -4.2873    0.8270    0.8225 C   0  0  0  0  0  0  0  0  0  0  0  0
   -5.1875    0.1948    0.6761 H   0  0  0  0  0  0  0  0  0  0  0  0
   -4.1601    0.9434    1.9232 H   0  0  0  0  0  0  0  0  0  0  0  0
   -3.2153    3.0561    0.3275 C   0  0  0  0  0  0  0  0  0  0  0  0
   -3.0367    3.2687    1.4066 H   0  0  0  0  0  0  0  0  0  0  0  0
   -3.3468    4.0405   -0.1685 H   0  0  0  0  0  0  0  0  0  0  0  0
    2.0952   -2.4248    2.2943 C   0  0  0  0  0  0  0  0  0  0  0  0
    2.6490   -1.6079    2.8112 H   0  0  0  0  0  0  0  0  0  0  0  0
    2.8482   -3.1966    2.0301 H   0  0  0  0  0  0  0  0  0  0  0  0
   -0.6888   -1.4124    2.2864 C   0  0  0  0  0  0  0  0  0  0  0  0
   -1.4464   -0.6500    2.5565 H   0  0  0  0  0  0  0  0  0  0  0  0
   -1.2202   -2.2317    1.7607 H   0  0  0  0  0  0  0  0  0  0  0  0
    2.1383    0.7838   -1.5229 C   0  0  0  0  0  0  0  0  0  0  0  0
    2.7718    0.0984   -0.9170 H   0  0  0  0  0  0  0  0  0  0  0  0
    1.7469    0.1962   -2.3765 H   0  0  0  0  0  0  0  0  0  0  0  0
    1.4772    2.1379    0.5037 C   0  0  0  0  0  0  0  0  0  0  0  0
    2.1075    1.5016    1.1634 H   0  0  0  0  0  0  0  0  0  0  0  0
    0.6383    2.5062    1.1298 H   0  0  0  0  0  0  0  0  0  0  0  0
   -0.0339   -1.9565    3.5652 C   0  0  0  0  0  0  0  0  0  0  0  0
   -0.8126   -2.3884    4.2279 H   0  0  0  0  0  0  0  0  0  0  0  0
    0.4296   -1.1150    4.1299 H   0  0  0  0  0  0  0  0  0  0  0  0
    3.4923    2.8295   -0.8692 C   0  0  0  0  0  0  0  0  0  0  0  0
    4.1920    2.2360   -0.2375 H   0  0  0  0  0  0  0  0  0  0  0  0
    4.0738    3.6922   -1.2558 H   0  0  0  0  0  0  0  0  0  0  0  0
    2.3261    3.3167    0.0000 C   0  0  0  0  0  0  0  0  0  0  0  0
    1.6802    3.9996   -0.5966 H   0  0  0  0  0  0  0  0  0  0  0  0
    2.7016    3.9084    0.8609 H   0  0  0  0  0  0  0  0  0  0  0  0
    2.9946    1.9545   -2.0266 C   0  0  0  0  0  0  0  0  0  0  0  0
    3.8510    1.5718   -2.6203 H   0  0  0  0  0  0  0  0  0  0  0  0
    2.3804    2.5728   -2.7192 H   0  0  0  0  0  0  0  0  0  0  0  0
  1  2  1  0  0  0  0
  1  7  1  0  0  0  0
  2  3  1  0  0  0  0
  2  4  1  0  0  0  0
  4  5  1  0  0  0  0
  4  6  1  0  0  0  0
  7  8  1  0  0  0  0
  4  7  1  0  0  0  0
  2  8  1  0  0  0  0
  8  9  1  0  0  0  0
  8 10  1  0  0  0  0
  7 11  1  0  0  0  0
  7 12  1  0  0  0  0
 13 14  1  0  0  0  0
 14 15  1  0  0  0  0
 14 16  1  0  0  0  0
 16 17  1  0  0  0  0
 16 18  1  0  0  0  0
 19 20  1  0  0  0  0
 19 21  1  0  0  0  0
 22 23  1  0  0  0  0
 22 24  1  0  0  0  0
 13 25  1  0  0  0  0
 25 26  1  0  0  0  0
 13 27  1  0  0  0  0
 27 28  1  0  0  0  0
 14 29  1  0  0  0  0
 29 30  1  0  0  0  0
 29 31  1  0  0  0  0
 32 33  1  0  0  0  0
 32 34  1  0  0  0  0
 22 35  1  0  0  0  0
 35 36  1  0  0  0  0
 35 37  1  0  0  0  0
 16 38  1  0  0  0  0
 38 39  1  0  0  0  0
 38 40  1  0  0  0  0
 19 41  1  0  0  0  0
 41 42  1  0  0  0  0
 41 43  1  0  0  0  0
 27 44  1  0  0  0  0
 44 45  1  0  0  0  0
 44 46  1  0  0  0  0
 25 47  1  0  0  0  0
 47 48  1  0  0  0  0
 47 49  1  0  0  0  0
 25 50  1  0  0  0  0
 50 51  1  0  0  0  0
 50 52  1  0  0  0  0
 32 53  1  0  0  0  0
 53 54  1  0  0  0  0
 53 55  1  0  0  0  0
 56 57  1  0  0  0  0
 56 58  1  0  0  0  0
 50 59  1  0  0  0  0
 59 60  1  0  0  0  0
 59 61  1  0  0  0  0
 47 62  1  0  0  0  0
 62 63  1  0  0  0  0
 62 64  1  0  0  0  0
 19 27  1  0  0  0  0
 22 38  1  0  0  0  0
 29 35  1  0  0  0  0
 32 41  1  0  0  0  0
 44 53  1  0  0  0  0
 56 59  1  0  0  0  0
 56 62  1  0  0  0  0
  7 13  1  0  0  0  0
M  END
>  <DFT-ENERGY>
-2178.67498725

$$$$
