
  CDK     08152405553D

 79 82  0  0  0  0  0  0  0  0999 V2000
    0.0006   -0.0106    1.9047 Ru  0  0  0  0  0  0  0  0  0  0  0  0
   -0.2413    1.3077    3.3329 C   0  0  0  0  0  0  0  0  0  0  0  0
    0.5763    2.0427    3.4371 H   0  0  0  0  0  0  0  0  0  0  0  0
    0.0000   -0.0228    4.1551 C   0  0  0  0  0  0  0  0  0  0  0  0
    0.9155    0.1411    4.7519 H   0  0  0  0  0  0  0  0  0  0  0  0
    0.2410   -1.3445    3.3187 C   0  0  0  0  0  0  0  0  0  0  0  0
   -0.5770   -2.0801    3.4148 H   0  0  0  0  0  0  0  0  0  0  0  0
    1.2667   -1.7407    3.4229 H   0  0  0  0  0  0  0  0  0  0  0  0
   -0.9154   -0.1931    4.7502 H   0  0  0  0  0  0  0  0  0  0  0  0
   -1.2672    1.7023    3.4408 H   0  0  0  0  0  0  0  0  0  0  0  0
    2.3373    0.4627    1.9743 Cl  0  0  0  0  0  0  0  0  0  0  0  0
   -2.3363   -0.4851    1.9675 Cl  0  0  0  0  0  0  0  0  0  0  0  0
   -0.0001    0.0003   -0.0750 C   0  0  0  0  0  0  0  0  0  0  0  0
   -0.0376   -1.1007   -0.8651 N   0  0  0  0  0  0  0  0  0  0  0  0
    0.1795   -0.7298   -2.2805 C   0  0  0  0  0  0  0  0  0  0  0  0
   -0.1850    0.7577   -2.2709 C   0  0  0  0  0  0  0  0  0  0  0  0
    0.0359    1.1109   -0.8516 N   0  0  0  0  0  0  0  0  0  0  0  0
    1.2432   -0.8968   -2.5561 H   0  0  0  0  0  0  0  0  0  0  0  0
   -0.4623   -1.3316   -2.9479 H   0  0  0  0  0  0  0  0  0  0  0  0
   -1.2494    0.9280   -2.5417 H   0  0  0  0  0  0  0  0  0  0  0  0
    0.4551    1.3675   -2.9326 H   0  0  0  0  0  0  0  0  0  0  0  0
   -0.0298   -2.4514   -0.3632 C   0  0  0  0  0  0  0  0  0  0  0  0
   -0.0567   -5.0394    0.6773 C   0  0  0  0  0  0  0  0  0  0  0  0
   -1.2622   -3.1538   -0.3022 C   0  0  0  0  0  0  0  0  0  0  0  0
    1.1966   -3.0385    0.0450 C   0  0  0  0  0  0  0  0  0  0  0  0
    1.1507   -4.3413    0.5759 C   0  0  0  0  0  0  0  0  0  0  0  0
   -1.2467   -4.4547    0.2305 C   0  0  0  0  0  0  0  0  0  0  0  0
    2.0831   -4.8163    0.9101 H   0  0  0  0  0  0  0  0  0  0  0  0
   -2.1883   -5.0158    0.3022 H   0  0  0  0  0  0  0  0  0  0  0  0
   -0.0695   -6.0545    1.1009 H   0  0  0  0  0  0  0  0  0  0  0  0
   -2.5556   -2.5662   -0.8494 C   0  0  0  0  0  0  0  0  0  0  0  0
   -2.4500   -1.4631   -0.8226 H   0  0  0  0  0  0  0  0  0  0  0  0
   -3.7907   -2.9295   -0.0137 C   0  0  0  0  0  0  0  0  0  0  0  0
   -4.6712   -2.3652   -0.3814 H   0  0  0  0  0  0  0  0  0  0  0  0
   -3.6359   -2.6696    1.0497 H   0  0  0  0  0  0  0  0  0  0  0  0
   -4.0402   -4.0082   -0.0933 H   0  0  0  0  0  0  0  0  0  0  0  0
   -2.7597   -3.0165   -2.3105 C   0  0  0  0  0  0  0  0  0  0  0  0
   -3.6623   -2.5399   -2.7451 H   0  0  0  0  0  0  0  0  0  0  0  0
   -2.8978   -4.1168   -2.3624 H   0  0  0  0  0  0  0  0  0  0  0  0
   -1.8941   -2.7688   -2.9574 H   0  0  0  0  0  0  0  0  0  0  0  0
    2.5381   -2.3483   -0.1620 C   0  0  0  0  0  0  0  0  0  0  0  0
    2.3627   -1.2542   -0.1933 H   0  0  0  0  0  0  0  0  0  0  0  0
    3.5358   -2.6013    0.9759 C   0  0  0  0  0  0  0  0  0  0  0  0
    3.8698   -3.6593    1.0071 H   0  0  0  0  0  0  0  0  0  0  0  0
    3.1035   -2.3275    1.9560 H   0  0  0  0  0  0  0  0  0  0  0  0
    4.4361   -1.9729    0.8293 H   0  0  0  0  0  0  0  0  0  0  0  0
    3.1469   -2.7976   -1.5063 C   0  0  0  0  0  0  0  0  0  0  0  0
    3.3783   -3.8831   -1.4859 H   0  0  0  0  0  0  0  0  0  0  0  0
    4.0907   -2.2511   -1.7093 H   0  0  0  0  0  0  0  0  0  0  0  0
    2.4584   -2.6280   -2.3584 H   0  0  0  0  0  0  0  0  0  0  0  0
    0.0299    2.4550   -0.3318 C   0  0  0  0  0  0  0  0  0  0  0  0
    0.0606    5.0277    0.7459 C   0  0  0  0  0  0  0  0  0  0  0  0
   -1.1956    3.0380    0.0850 C   0  0  0  0  0  0  0  0  0  0  0  0
    1.2633    3.1549   -0.2613 C   0  0  0  0  0  0  0  0  0  0  0  0
    1.2497    4.4480    0.2902 C   0  0  0  0  0  0  0  0  0  0  0  0
   -1.1478    4.3329    0.6346 C   0  0  0  0  0  0  0  0  0  0  0  0
    2.1920    5.0066    0.3697 H   0  0  0  0  0  0  0  0  0  0  0  0
   -2.0794    4.8043    0.9760 H   0  0  0  0  0  0  0  0  0  0  0  0
    0.0750    6.0365    1.1843 H   0  0  0  0  0  0  0  0  0  0  0  0
   -2.5380    2.3526   -0.1316 C   0  0  0  0  0  0  0  0  0  0  0  0
   -2.3641    1.2588   -0.1775 H   0  0  0  0  0  0  0  0  0  0  0  0
   -3.1455    2.8209   -1.4700 C   0  0  0  0  0  0  0  0  0  0  0  0
   -4.0899    2.2784   -1.6810 H   0  0  0  0  0  0  0  0  0  0  0  0
   -2.4567    2.6622   -2.3239 H   0  0  0  0  0  0  0  0  0  0  0  0
   -3.3757    3.9063   -1.4348 H   0  0  0  0  0  0  0  0  0  0  0  0
   -3.5360    2.5919    1.0091 C   0  0  0  0  0  0  0  0  0  0  0  0
   -4.4369    1.9665    0.8539 H   0  0  0  0  0  0  0  0  0  0  0  0
   -3.8689    3.6498    1.0538 H   0  0  0  0  0  0  0  0  0  0  0  0
   -3.1045    2.3049    1.9857 H   0  0  0  0  0  0  0  0  0  0  0  0
    2.5555    2.5738   -0.8181 C   0  0  0  0  0  0  0  0  0  0  0  0
    2.4497    1.4704   -0.8046 H   0  0  0  0  0  0  0  0  0  0  0  0
    2.7565    3.0419   -2.2740 C   0  0  0  0  0  0  0  0  0  0  0  0
    3.6584    2.5708   -2.7162 H   0  0  0  0  0  0  0  0  0  0  0  0
    2.8943    4.1427   -2.3127 H   0  0  0  0  0  0  0  0  0  0  0  0
    1.8897    2.8020   -2.9221 H   0  0  0  0  0  0  0  0  0  0  0  0
    3.7925    2.9267    0.0191 C   0  0  0  0  0  0  0  0  0  0  0  0
    4.0425    4.0061   -0.0484 H   0  0  0  0  0  0  0  0  0  0  0  0
    4.6720    2.3664   -0.3571 H   0  0  0  0  0  0  0  0  0  0  0  0
    3.6400    2.6545    1.0798 H   0  0  0  0  0  0  0  0  0  0  0  0
  2  4  1  0  0  0  0
  2  1  1  0  0  0  0
  2  3  1  0  0  0  0
  4  6  1  0  0  0  0
  4  5  1  0  0  0  0
  6  1  1  0  0  0  0
  6  8  1  0  0  0  0
  7  6  1  0  0  0  0
  9  4  1  0  0  0  0
 10  2  1  0  0  0  0
  1 11  1  0  0  0  0
  1 12  1  0  0  0  0
 13 14  1  0  0  0  0
 13 17  1  0  0  0  0
 14 15  1  0  0  0  0
 15 18  1  0  0  0  0
 15 19  1  0  0  0  0
 15 16  1  0  0  0  0
 16 20  1  0  0  0  0
 16 21  1  0  0  0  0
 16 17  1  0  0  0  0
 22 25  2  0  0  0  0
 22 24  1  0  0  0  0
 23 26  2  0  0  0  0
 23 27  1  0  0  0  0
 23 30  1  0  0  0  0
 24 27  2  0  0  0  0
 25 26  1  0  0  0  0
 26 28  1  0  0  0  0
 27 29  1  0  0  0  0
 14 22  1  0  0  0  0
 31 32  1  0  0  0  0
 31 33  1  0  0  0  0
 31 37  1  0  0  0  0
 33 34  1  0  0  0  0
 33 35  1  0  0  0  0
 33 36  1  0  0  0  0
 37 38  1  0  0  0  0
 37 39  1  0  0  0  0
 37 40  1  0  0  0  0
 24 31  1  0  0  0  0
 41 42  1  0  0  0  0
 41 43  1  0  0  0  0
 41 47  1  0  0  0  0
 43 44  1  0  0  0  0
 43 45  1  0  0  0  0
 43 46  1  0  0  0  0
 47 48  1  0  0  0  0
 47 49  1  0  0  0  0
 47 50  1  0  0  0  0
 25 41  1  0  0  0  0
 51 54  2  0  0  0  0
 51 53  1  0  0  0  0
 52 55  2  0  0  0  0
 52 56  1  0  0  0  0
 52 59  1  0  0  0  0
 53 56  2  0  0  0  0
 54 55  1  0  0  0  0
 55 57  1  0  0  0  0
 56 58  1  0  0  0  0
 17 51  1  0  0  0  0
 60 61  1  0  0  0  0
 60 62  1  0  0  0  0
 60 66  1  0  0  0  0
 62 63  1  0  0  0  0
 62 64  1  0  0  0  0
 62 65  1  0  0  0  0
 66 67  1  0  0  0  0
 66 68  1  0  0  0  0
 66 69  1  0  0  0  0
 53 60  1  0  0  0  0
 70 71  1  0  0  0  0
 70 72  1  0  0  0  0
 70 76  1  0  0  0  0
 72 73  1  0  0  0  0
 72 74  1  0  0  0  0
 72 75  1  0  0  0  0
 76 77  1  0  0  0  0
 76 78  1  0  0  0  0
 76 79  1  0  0  0  0
 54 70  1  0  0  0  0
  1 13  1  0  0  0  0
M  END
>  <DFT-ENERGY>
-2292.46272914

$$$$
