
  CDK     08142403543D

 85 88  0  0  0  0  0  0  0  0999 V2000
   -1.2456   -1.8144    3.5243 C   0  0  0  0  0  0  0  0  0  0  0  0
   -0.3072   -2.3823    3.6487 H   0  0  0  0  0  0  0  0  0  0  0  0
   -1.9346   -2.0369    4.3695 H   0  0  0  0  0  0  0  0  0  0  0  0
   -1.7506   -2.1771    2.6049 H   0  0  0  0  0  0  0  0  0  0  0  0
   -1.0070   -0.3234    3.4769 C   0  0  0  0  0  0  0  0  0  0  0  0
   -1.9170    0.3043    3.4355 H   0  0  0  0  0  0  0  0  0  0  0  0
    0.1355    0.3263    4.0179 C   0  0  0  0  0  0  0  0  0  0  0  0
    0.9811   -0.3187    4.3142 H   0  0  0  0  0  0  0  0  0  0  0  0
   -0.0130    1.6644    4.7058 C   0  0  0  0  0  0  0  0  0  0  0  0
    0.9532    2.1845    4.8465 H   0  0  0  0  0  0  0  0  0  0  0  0
   -0.4519    1.4953    5.7128 H   0  0  0  0  0  0  0  0  0  0  0  0
   -0.7018    2.3199    4.1372 H   0  0  0  0  0  0  0  0  0  0  0  0
    1.3257    1.2626    2.2593 C   0  0  0  0  0  0  0  0  0  0  0  0
    1.1142    2.3490    2.3537 H   0  0  0  0  0  0  0  0  0  0  0  0
    2.3464    0.9099    2.5239 H   0  0  0  0  0  0  0  0  0  0  0  0
    0.0655    0.0937    1.6341 Ru  0  0  0  0  0  0  0  0  0  0  0  0
   -1.4939    1.9211    1.4185 Cl  0  0  0  0  0  0  0  0  0  0  0  0
    1.6179   -1.7040    1.9472 Cl  0  0  0  0  0  0  0  0  0  0  0  0
    0.0172    0.0523   -0.3581 C   0  0  0  0  0  0  0  0  0  0  0  0
    0.6275    0.8879   -1.2403 N   0  0  0  0  0  0  0  0  0  0  0  0
    0.2052    0.5980   -2.6295 C   0  0  0  0  0  0  0  0  0  0  0  0
   -1.0789   -0.2064   -2.4125 C   0  0  0  0  0  0  0  0  0  0  0  0
   -0.8772   -0.7150   -1.0421 N   0  0  0  0  0  0  0  0  0  0  0  0
    0.0367    1.5341   -3.1907 H   0  0  0  0  0  0  0  0  0  0  0  0
    0.9898    0.0061   -3.1486 H   0  0  0  0  0  0  0  0  0  0  0  0
   -1.2069   -1.0364   -3.1313 H   0  0  0  0  0  0  0  0  0  0  0  0
   -1.9819    0.4402   -2.4503 H   0  0  0  0  0  0  0  0  0  0  0  0
    1.6911    1.8047   -0.9392 C   0  0  0  0  0  0  0  0  0  0  0  0
    3.7542    3.6109   -0.3956 C   0  0  0  0  0  0  0  0  0  0  0  0
    2.9965    1.3027   -0.6806 C   0  0  0  0  0  0  0  0  0  0  0  0
    1.4092    3.1947   -0.9416 C   0  0  0  0  0  0  0  0  0  0  0  0
    2.4672    4.0823   -0.6694 C   0  0  0  0  0  0  0  0  0  0  0  0
    4.0118    2.2352   -0.4009 C   0  0  0  0  0  0  0  0  0  0  0  0
    2.2711    5.1639   -0.6644 H   0  0  0  0  0  0  0  0  0  0  0  0
    5.0267    1.8731   -0.1889 H   0  0  0  0  0  0  0  0  0  0  0  0
    4.5657    4.3207   -0.1772 H   0  0  0  0  0  0  0  0  0  0  0  0
    3.3220   -0.1832   -0.7535 C   0  0  0  0  0  0  0  0  0  0  0  0
    2.4076   -0.7424   -0.4743 H   0  0  0  0  0  0  0  0  0  0  0  0
    4.4139   -0.6190    0.2317 C   0  0  0  0  0  0  0  0  0  0  0  0
    4.4919   -1.7239    0.2328 H   0  0  0  0  0  0  0  0  0  0  0  0
    4.1705   -0.3105    1.2656 H   0  0  0  0  0  0  0  0  0  0  0  0
    5.4103   -0.2138   -0.0430 H   0  0  0  0  0  0  0  0  0  0  0  0
    3.7240   -0.5750   -2.1890 C   0  0  0  0  0  0  0  0  0  0  0  0
    3.8872   -1.6702   -2.2613 H   0  0  0  0  0  0  0  0  0  0  0  0
    4.6666   -0.0681   -2.4842 H   0  0  0  0  0  0  0  0  0  0  0  0
    2.9541   -0.2945   -2.9346 H   0  0  0  0  0  0  0  0  0  0  0  0
    0.0264    3.7459   -1.2598 C   0  0  0  0  0  0  0  0  0  0  0  0
   -0.6895    2.9031   -1.1855 H   0  0  0  0  0  0  0  0  0  0  0  0
   -0.4295    4.8077   -0.2474 C   0  0  0  0  0  0  0  0  0  0  0  0
    0.2000    5.7205   -0.2938 H   0  0  0  0  0  0  0  0  0  0  0  0
   -0.4082    4.4020    0.7812 H   0  0  0  0  0  0  0  0  0  0  0  0
   -1.4722    5.1143   -0.4669 H   0  0  0  0  0  0  0  0  0  0  0  0
   -0.0064    4.3213   -2.6891 C   0  0  0  0  0  0  0  0  0  0  0  0
    0.6720    5.1957   -2.7767 H   0  0  0  0  0  0  0  0  0  0  0  0
   -1.0296    4.6600   -2.9522 H   0  0  0  0  0  0  0  0  0  0  0  0
    0.3193    3.5830   -3.4503 H   0  0  0  0  0  0  0  0  0  0  0  0
   -1.6080   -1.8031   -0.4513 C   0  0  0  0  0  0  0  0  0  0  0  0
   -2.9973   -3.9457    0.6775 C   0  0  0  0  0  0  0  0  0  0  0  0
   -0.9531   -3.0622   -0.3322 C   0  0  0  0  0  0  0  0  0  0  0  0
   -2.9490   -1.6085   -0.0326 C   0  0  0  0  0  0  0  0  0  0  0  0
   -3.6282   -2.7076    0.5290 C   0  0  0  0  0  0  0  0  0  0  0  0
   -1.6736   -4.1177    0.2524 C   0  0  0  0  0  0  0  0  0  0  0  0
   -4.6680   -2.5820    0.8616 H   0  0  0  0  0  0  0  0  0  0  0  0
   -1.1895   -5.0952    0.3747 H   0  0  0  0  0  0  0  0  0  0  0  0
   -3.5408   -4.7887    1.1292 H   0  0  0  0  0  0  0  0  0  0  0  0
    0.4584   -3.2825   -0.8629 C   0  0  0  0  0  0  0  0  0  0  0  0
    1.0300   -2.3565   -0.6566 H   0  0  0  0  0  0  0  0  0  0  0  0
    0.4353   -3.5164   -2.3858 C   0  0  0  0  0  0  0  0  0  0  0  0
    1.4683   -3.6332   -2.7737 H   0  0  0  0  0  0  0  0  0  0  0  0
   -0.0372   -2.6795   -2.9351 H   0  0  0  0  0  0  0  0  0  0  0  0
   -0.1295   -4.4391   -2.6343 H   0  0  0  0  0  0  0  0  0  0  0  0
    1.2039   -4.4279   -0.1689 C   0  0  0  0  0  0  0  0  0  0  0  0
    2.2615   -4.4357   -0.5004 H   0  0  0  0  0  0  0  0  0  0  0  0
    0.7751   -5.4198   -0.4237 H   0  0  0  0  0  0  0  0  0  0  0  0
    1.1966   -4.2974    0.9294 H   0  0  0  0  0  0  0  0  0  0  0  0
   -3.6730   -0.2841   -0.2213 C   0  0  0  0  0  0  0  0  0  0  0  0
   -2.9046    0.5012   -0.3667 H   0  0  0  0  0  0  0  0  0  0  0  0
   -4.5778   -0.3503   -1.4671 C   0  0  0  0  0  0  0  0  0  0  0  0
   -5.0632    0.6303   -1.6498 H   0  0  0  0  0  0  0  0  0  0  0  0
   -5.3793   -1.1064   -1.3316 H   0  0  0  0  0  0  0  0  0  0  0  0
   -4.0133   -0.6316   -2.3788 H   0  0  0  0  0  0  0  0  0  0  0  0
   -4.4871    0.1281    1.0134 C   0  0  0  0  0  0  0  0  0  0  0  0
   -5.3453   -0.5521    1.1938 H   0  0  0  0  0  0  0  0  0  0  0  0
   -4.8943    1.1487    0.8712 H   0  0  0  0  0  0  0  0  0  0  0  0
   -3.8505    0.1505    1.9178 H   0  0  0  0  0  0  0  0  0  0  0  0
  1  2  1  0  0  0  0
  1  5  1  0  0  0  0
  3  1  1  0  0  0  0
  4  1  1  0  0  0  0
  5  6  1  0  0  0  0
  5 16  1  0  0  0  0
  5  7  1  0  0  0  0
  7  9  1  0  0  0  0
  7  8  1  0  0  0  0
  9 10  1  0  0  0  0
 11  9  1  0  0  0  0
 12  9  1  0  0  0  0
 13 14  1  0  0  0  0
 13 15  1  0  0  0  0
 13  7  1  0  0  0  0
 16 13  1  0  0  0  0
 16 17  1  0  0  0  0
 16 18  1  0  0  0  0
 19 20  1  0  0  0  0
 19 23  1  0  0  0  0
 20 21  1  0  0  0  0
 21 24  1  0  0  0  0
 21 25  1  0  0  0  0
 21 22  1  0  0  0  0
 22 26  1  0  0  0  0
 22 27  1  0  0  0  0
 22 23  1  0  0  0  0
 28 31  2  0  0  0  0
 28 30  1  0  0  0  0
 29 32  2  0  0  0  0
 29 33  1  0  0  0  0
 29 36  1  0  0  0  0
 30 33  2  0  0  0  0
 31 32  1  0  0  0  0
 32 34  1  0  0  0  0
 33 35  1  0  0  0  0
 20 28  1  0  0  0  0
 37 38  1  0  0  0  0
 37 39  1  0  0  0  0
 37 43  1  0  0  0  0
 39 40  1  0  0  0  0
 39 41  1  0  0  0  0
 39 42  1  0  0  0  0
 43 44  1  0  0  0  0
 43 45  1  0  0  0  0
 43 46  1  0  0  0  0
 30 37  1  0  0  0  0
 47 48  1  0  0  0  0
 47 49  1  0  0  0  0
 47 53  1  0  0  0  0
 49 50  1  0  0  0  0
 49 51  1  0  0  0  0
 49 52  1  0  0  0  0
 53 54  1  0  0  0  0
 53 55  1  0  0  0  0
 53 56  1  0  0  0  0
 31 47  1  0  0  0  0
 57 60  2  0  0  0  0
 57 59  1  0  0  0  0
 58 61  2  0  0  0  0
 58 62  1  0  0  0  0
 58 65  1  0  0  0  0
 59 62  2  0  0  0  0
 60 61  1  0  0  0  0
 61 63  1  0  0  0  0
 62 64  1  0  0  0  0
 23 57  1  0  0  0  0
 66 67  1  0  0  0  0
 66 68  1  0  0  0  0
 66 72  1  0  0  0  0
 68 69  1  0  0  0  0
 68 70  1  0  0  0  0
 68 71  1  0  0  0  0
 72 73  1  0  0  0  0
 72 74  1  0  0  0  0
 72 75  1  0  0  0  0
 59 66  1  0  0  0  0
 76 77  1  0  0  0  0
 76 78  1  0  0  0  0
 76 82  1  0  0  0  0
 78 79  1  0  0  0  0
 78 80  1  0  0  0  0
 78 81  1  0  0  0  0
 82 83  1  0  0  0  0
 82 84  1  0  0  0  0
 82 85  1  0  0  0  0
 60 76  1  0  0  0  0
 16 19  1  0  0  0  0
M  END
>  <DFT-ENERGY>
-2370.97341137

$$$$
