DIPP-1_A1
  CDK     08132410303D

 93 97  0  0  0  0  0  0  0  0999 V2000
   -0.4456   -1.2304   -0.2735 Ru  0  0  0  0  0  0  0  0  0  0  0  0
   -0.4456   -3.0082   -1.6627 O   0  0  0  0  0  0  0  0  0  0  0  0
   -1.3789   -2.4406    0.7306 C   0  0  0  0  0  0  0  0  0  0  0  0
   -1.6718   -2.2078    1.7533 H   0  0  0  0  0  0  0  0  0  0  0  0
    0.3296   -3.2437   -2.8885 C   0  0  0  0  0  0  0  0  0  0  0  0
   -0.3710   -3.6500   -3.6481 H   0  0  0  0  0  0  0  0  0  0  0  0
    0.7737   -1.8214   -3.2004 C   0  0  0  0  0  0  0  0  0  0  0  0
    1.2768   -1.7491   -4.1677 H   0  0  0  0  0  0  0  0  0  0  0  0
    1.4693   -1.4381   -2.4250 H   0  0  0  0  0  0  0  0  0  0  0  0
   -0.0960   -1.1324   -3.2082 H   0  0  0  0  0  0  0  0  0  0  0  0
    1.4739   -4.1844   -2.5568 C   0  0  0  0  0  0  0  0  0  0  0  0
    2.2450   -4.1787   -3.3337 H   0  0  0  0  0  0  0  0  0  0  0  0
    1.1440   -5.2177   -2.4081 H   0  0  0  0  0  0  0  0  0  0  0  0
    1.9597   -3.8669   -1.6125 H   0  0  0  0  0  0  0  0  0  0  0  0
   -1.2440   -4.0004   -1.1577 C   0  0  0  0  0  0  0  0  0  0  0  0
   -1.5927   -5.1695   -1.8107 C   0  0  0  0  0  0  0  0  0  0  0  0
   -1.2419   -5.3888   -2.8165 H   0  0  0  0  0  0  0  0  0  0  0  0
   -2.4238   -6.0707   -1.1532 C   0  0  0  0  0  0  0  0  0  0  0  0
   -2.7111   -6.9934   -1.6619 H   0  0  0  0  0  0  0  0  0  0  0  0
   -2.8954   -5.8207    0.1321 C   0  0  0  0  0  0  0  0  0  0  0  0
   -3.5396   -6.5457    0.6266 H   0  0  0  0  0  0  0  0  0  0  0  0
   -2.5351   -4.6510    0.7737 C   0  0  0  0  0  0  0  0  0  0  0  0
   -2.8897   -4.4578    1.7850 H   0  0  0  0  0  0  0  0  0  0  0  0
   -1.7197   -3.7155    0.1343 C   0  0  0  0  0  0  0  0  0  0  0  0
    1.7544   -1.8322    0.2888 Cl  0  0  0  0  0  0  0  0  0  0  0  0
   -2.1541   -0.4060   -1.6348 Cl  0  0  0  0  0  0  0  0  0  0  0  0
   -0.4760    0.3862    0.8638 C   0  0  0  0  0  0  0  0  0  0  0  0
    0.2114    1.5522    0.5008 N   0  0  0  0  0  0  0  0  0  0  0  0
   -0.0259    2.7147    1.4271 C   0  0  0  0  0  0  0  0  0  0  0  0
   -1.0010    2.1433    2.4656 C   0  0  0  0  0  0  0  0  0  0  0  0
   -1.1644    0.7067    2.0343 N   0  0  0  0  0  0  0  0  0  0  0  0
    0.9429    3.0451    1.8742 H   0  0  0  0  0  0  0  0  0  0  0  0
   -0.4506    3.5744    0.8563 H   0  0  0  0  0  0  0  0  0  0  0  0
   -1.9867    2.6523    2.4535 H   0  0  0  0  0  0  0  0  0  0  0  0
   -0.6060    2.1930    3.5002 H   0  0  0  0  0  0  0  0  0  0  0  0
    1.1000    1.8022   -0.6150 C   0  0  0  0  0  0  0  0  0  0  0  0
    2.8230    2.4251   -2.7251 C   0  0  0  0  0  0  0  0  0  0  0  0
    0.5719    2.3607   -1.8053 C   0  0  0  0  0  0  0  0  0  0  0  0
    2.4958    1.6166   -0.4520 C   0  0  0  0  0  0  0  0  0  0  0  0
    3.3388    1.9255   -1.5295 C   0  0  0  0  0  0  0  0  0  0  0  0
    1.4533    2.6522   -2.8561 C   0  0  0  0  0  0  0  0  0  0  0  0
    4.4146    1.7808   -1.4285 H   0  0  0  0  0  0  0  0  0  0  0  0
    1.0625    3.0720   -3.7831 H   0  0  0  0  0  0  0  0  0  0  0  0
    3.4934    2.6528   -3.5529 H   0  0  0  0  0  0  0  0  0  0  0  0
   -0.8997    2.7167   -1.9403 C   0  0  0  0  0  0  0  0  0  0  0  0
   -1.4972    2.0940   -1.2186 H   0  0  0  0  0  0  0  0  0  0  0  0
   -1.4462    2.4208   -3.3408 C   0  0  0  0  0  0  0  0  0  0  0  0
   -2.5324    2.5677   -3.3715 H   0  0  0  0  0  0  0  0  0  0  0  0
   -1.2692    1.3691   -3.6096 H   0  0  0  0  0  0  0  0  0  0  0  0
   -1.0008    3.0538   -4.1127 H   0  0  0  0  0  0  0  0  0  0  0  0
   -1.0870    4.1978   -1.5739 C   0  0  0  0  0  0  0  0  0  0  0  0
   -2.1345    4.4981   -1.6856 H   0  0  0  0  0  0  0  0  0  0  0  0
   -0.4870    4.8528   -2.2147 H   0  0  0  0  0  0  0  0  0  0  0  0
   -0.7922    4.3861   -0.5309 H   0  0  0  0  0  0  0  0  0  0  0  0
    3.0963    1.1606    0.8683 C   0  0  0  0  0  0  0  0  0  0  0  0
    2.3362    0.5377    1.4154 H   0  0  0  0  0  0  0  0  0  0  0  0
    4.3416    0.2866    0.6802 C   0  0  0  0  0  0  0  0  0  0  0  0
    5.1956    0.8463    0.2894 H   0  0  0  0  0  0  0  0  0  0  0  0
    4.1327   -0.5449   -0.0094 H   0  0  0  0  0  0  0  0  0  0  0  0
    4.6449   -0.1662    1.6308 H   0  0  0  0  0  0  0  0  0  0  0  0
    3.4291    2.3983    1.7179 C   0  0  0  0  0  0  0  0  0  0  0  0
    4.1353    3.0606    1.2054 H   0  0  0  0  0  0  0  0  0  0  0  0
    3.8838    2.1067    2.6705 H   0  0  0  0  0  0  0  0  0  0  0  0
    2.5245    2.9833    1.9421 H   0  0  0  0  0  0  0  0  0  0  0  0
   -1.9975   -0.1073    2.8903 C   0  0  0  0  0  0  0  0  0  0  0  0
   -3.6362   -1.5257    4.6501 C   0  0  0  0  0  0  0  0  0  0  0  0
   -3.3769   -0.2320    2.6059 C   0  0  0  0  0  0  0  0  0  0  0  0
   -1.4288   -0.7013    4.0445 C   0  0  0  0  0  0  0  0  0  0  0  0
   -2.2687   -1.4150    4.9089 C   0  0  0  0  0  0  0  0  0  0  0  0
   -4.1832   -0.9428    3.5081 C   0  0  0  0  0  0  0  0  0  0  0  0
   -1.8491   -1.8933    5.7939 H   0  0  0  0  0  0  0  0  0  0  0  0
   -5.2496   -1.0426    3.3061 H   0  0  0  0  0  0  0  0  0  0  0  0
   -4.2758   -2.0746    5.3403 H   0  0  0  0  0  0  0  0  0  0  0  0
   -3.9992    0.3514    1.3489 C   0  0  0  0  0  0  0  0  0  0  0  0
   -3.2045    0.8411    0.7208 H   0  0  0  0  0  0  0  0  0  0  0  0
   -5.0436    1.4144    1.7124 C   0  0  0  0  0  0  0  0  0  0  0  0
   -5.4386    1.8921    0.8080 H   0  0  0  0  0  0  0  0  0  0  0  0
   -4.6157    2.1975    2.3455 H   0  0  0  0  0  0  0  0  0  0  0  0
   -5.8962    0.9844    2.2490 H   0  0  0  0  0  0  0  0  0  0  0  0
   -4.5999   -0.7691    0.4918 C   0  0  0  0  0  0  0  0  0  0  0  0
   -4.9347   -0.3785   -0.4782 H   0  0  0  0  0  0  0  0  0  0  0  0
   -5.4457   -1.2669    0.9698 H   0  0  0  0  0  0  0  0  0  0  0  0
   -3.8360   -1.5301    0.2578 H   0  0  0  0  0  0  0  0  0  0  0  0
    0.0627   -0.6247    4.3261 C   0  0  0  0  0  0  0  0  0  0  0  0
    0.4985    0.2651    3.8009 H   0  0  0  0  0  0  0  0  0  0  0  0
    0.3644   -0.4565    5.8207 C   0  0  0  0  0  0  0  0  0  0  0  0
    1.4317   -0.2662    5.9815 H   0  0  0  0  0  0  0  0  0  0  0  0
    0.1116   -1.3551    6.3950 H   0  0  0  0  0  0  0  0  0  0  0  0
   -0.1942    0.3806    6.2518 H   0  0  0  0  0  0  0  0  0  0  0  0
    0.7346   -1.8780    3.7541 C   0  0  0  0  0  0  0  0  0  0  0  0
    0.3541   -2.7981    4.2071 H   0  0  0  0  0  0  0  0  0  0  0  0
    1.8197   -1.8569    3.9030 H   0  0  0  0  0  0  0  0  0  0  0  0
    0.5715   -1.9537    2.6627 H   0  0  0  0  0  0  0  0  0  0  0  0
  1  2  1  0  0  0  0
  1  3  2  0  0  0  0
  3  4  1  0  0  0  0
  2  5  1  0  0  0  0
  5  6  1  0  0  0  0
  5  7  1  0  0  0  0
  7  8  1  0  0  0  0
  7  9  1  0  0  0  0
  7 10  1  0  0  0  0
  5 11  1  0  0  0  0
 11 12  1  0  0  0  0
 11 13  1  0  0  0  0
 11 14  1  0  0  0  0
  2 15  1  0  0  0  0
 15 24  1  0  0  0  0
 15 16  2  0  0  0  0
 16 17  1  0  0  0  0
 16 18  1  0  0  0  0
 18 19  1  0  0  0  0
 18 20  2  0  0  0  0
 20 21  1  0  0  0  0
 20 22  1  0  0  0  0
 22 24  2  0  0  0  0
 22 23  1  0  0  0  0
  3 24  1  0  0  0  0
  1 25  1  0  0  0  0
  1 26  1  0  0  0  0
 27 28  1  0  0  0  0
 27 31  1  0  0  0  0
 28 29  1  0  0  0  0
 29 32  1  0  0  0  0
 29 33  1  0  0  0  0
 29 30  1  0  0  0  0
 30 34  1  0  0  0  0
 30 35  1  0  0  0  0
 30 31  1  0  0  0  0
  1 27  1  0  0  0  0
 36 39  2  0  0  0  0
 36 38  1  0  0  0  0
 37 40  2  0  0  0  0
 37 41  1  0  0  0  0
 37 44  1  0  0  0  0
 38 41  2  0  0  0  0
 39 40  1  0  0  0  0
 40 42  1  0  0  0  0
 41 43  1  0  0  0  0
 28 36  1  0  0  0  0
 45 46  1  0  0  0  0
 45 47  1  0  0  0  0
 45 51  1  0  0  0  0
 47 48  1  0  0  0  0
 47 49  1  0  0  0  0
 47 50  1  0  0  0  0
 51 52  1  0  0  0  0
 51 53  1  0  0  0  0
 51 54  1  0  0  0  0
 38 45  1  0  0  0  0
 55 56  1  0  0  0  0
 55 57  1  0  0  0  0
 55 61  1  0  0  0  0
 57 58  1  0  0  0  0
 57 59  1  0  0  0  0
 57 60  1  0  0  0  0
 61 62  1  0  0  0  0
 61 63  1  0  0  0  0
 61 64  1  0  0  0  0
 39 55  1  0  0  0  0
 65 68  2  0  0  0  0
 65 67  1  0  0  0  0
 66 69  2  0  0  0  0
 66 70  1  0  0  0  0
 66 73  1  0  0  0  0
 67 70  2  0  0  0  0
 68 69  1  0  0  0  0
 69 71  1  0  0  0  0
 70 72  1  0  0  0  0
 31 65  1  0  0  0  0
 74 75  1  0  0  0  0
 74 76  1  0  0  0  0
 74 80  1  0  0  0  0
 76 77  1  0  0  0  0
 76 78  1  0  0  0  0
 76 79  1  0  0  0  0
 80 81  1  0  0  0  0
 80 82  1  0  0  0  0
 80 83  1  0  0  0  0
 67 74  1  0  0  0  0
 84 85  1  0  0  0  0
 84 86  1  0  0  0  0
 84 90  1  0  0  0  0
 86 87  1  0  0  0  0
 86 88  1  0  0  0  0
 86 89  1  0  0  0  0
 90 91  1  0  0  0  0
 90 92  1  0  0  0  0
 90 93  1  0  0  0  0
 68 84  1  0  0  0  0
M  END
> <FrozenCore-PM6_ENERGY>
-34.536

> <RMSD_CONF_CG-CS>
2.709057

> <RMSD_CONF_GO-CS>
0.000000

> <UID>


> <DESCRIPTOR_DEFINITION_1>
desc1=( echo "1 * ( e( $hartree_to_kcalmol * ( ( $freeEnergyZ - $freeEnergyD ) - ( $freeEnergyX + 2*$G_Ethene - $freeEnergyD - 2*$G_Propene ) - $DDG_reference_HGII ) / $kT ) ) " | bc -l )

> <DESCRIPTOR_DEFINITION_2>
desc1=( echo "1 * ( e( $hartree_to_kcalmol * ( ( $freeEnergyZ - $freeEnergyD ) - ( $freeEnergyX + 2*$G_Ethene - $freeEnergyD - 2*$G_Propene ) - $DDG_reference_HGII ) / $kT ) ) " | bc -l )

> <DESCRIPTOR_DEFINITION_3>
desc1=( echo "1 * ( e( $hartree_to_kcalmol * ( ( $freeEnergyZ - $freeEnergyD ) - ( $freeEnergyX + 2*$G_Ethene - $freeEnergyD - 2*$G_Propene ) - $DDG_reference_HGII ) / $kT ) ) " | bc -l )

> <WEIGHT_DEFINITION_1>
w1=$( echo "1 / ( 1 + e( $hartree_to_kcalmol * ( ( ( $freeEnergyX + 2*$G_Ethene - $freeEnergyD - 2*$G_Propene ) ) - ( $DG_referenceProductionBarrier + $magnitude4 ) ) / $kT ) )" | bc -l )

> <WEIGHT_DEFINITION_2>
w1=$( echo "1 / ( 1 + e( $hartree_to_kcalmol * ( ( ( $freeEnergyX + 2*$G_Ethene - $freeEnergyD - 2*$G_Propene ) ) - ( $DG_referenceProductionBarrier + $magnitude4 ) ) / $kT ) )" | bc -l )

> <WEIGHT_DEFINITION_3>
w1=$( echo "1 / ( 1 + e( $hartree_to_kcalmol * ( ( ( $freeEnergyX + 2*$G_Ethene - $freeEnergyD - 2*$G_Propene ) ) - ( $DG_referenceProductionBarrier + $magnitude4 ) ) / $kT ) )" | bc -l )

> <WEIGHT_DEFINITION_4>
w1=$( echo "1 / ( 1 + e( $hartree_to_kcalmol * ( ( ( $freeEnergyX + 2*$G_Ethene - $freeEnergyD - 2*$G_Propene ) ) - ( $DG_referenceProductionBarrier + $magnitude4 ) ) / $kT ) )" | bc -l )

> <CALCULATION_OF_OVERALL_FITNESS>
fitness=$( echo "( $desc1 + $desc2 + $desc3 ) * ( $w1 * $w2 * $w3 * $w4 )" | bc -l )

> <freeEnergyA>
-2637.69352734

> <freeEnergyF>
-2637.67311633

> <freeEnergyE>
-2637.69352734

> <freeEnergyC>
-2292.43652635

> <freeEnergyL>
-1159.83043604

> <freeEnergyX>
-2370.97341123

> <freeEnergyZ>
-2292.4190669

> <freeEnergyD>
-2292.46272907

> <G_Propene>
-117.738020895

> <G_Ethene>
-78.4716324751

> <G_HoveydaProd>
-502.204109499

> <G_SIMes>
-924.27249048

> <G_HG_RuCl2_SIMes>
-2402.13728523

> <DG_referenceProductionBarrier>
0.01468968

> <DG_referencePrecursorStabilityHII>
-0.0052201621

> <DG_referencePrecursorStabilityHI>
0.0117775312

> <DDG_referencePrecursorStability>
.0169976933

> <DG_referenceSynt>
0.0226072217

> <hartree_to_kcalmol>
627.49467516

> <boltzmann_constant>
0.0000000000000000000000138066

> <avogadro_number>
602214000000000000000000

> <jmol_to_kcalmol>
0.00023901

> <temp>
313.15

> <kT>
.6223089948281258706000000000

> <magnitude1>
1.43290809

> <magnitude2>
2.86581618

> <magnitude3>
4.29872427

> <magnitude4>
5.73163236

> <DFT_IDENTIFIER>
1723697829073

> <DFT_MACHINE>
158.39.114.73

> <XTB_IDENTIFIER>
NREC

> <XTB_MACHINE>
NREC

> <DESCRIPTOR_1>
.51204977586810561244

> <DESCRIPTOR_2>
13.533485257065483432

> <DESCRIPTOR_3>
.110906546361154200

> <WEIGHT_1>
.99991632489610095071

> <WEIGHT_2>
.99999998556813080690

> <WEIGHT_3>
.99999999992985996142

> <WEIGHT_4>
.99999988472676824690

> <FITNESS>
14.15525520057288535992

$$$$
