
  CDK     07312410493D

 79 83  0  0  0  0  0  0  0  0999 V2000
   -1.2483    3.1403    1.3717 H   0  0  0  0  0  0  0  0  0  0  0  0
   -2.4516    3.0461    1.6110 C   0  0  0  0  0  0  0  0  0  0  0  0
   -2.4721    4.1200    1.8928 H   0  0  0  0  0  0  0  0  0  0  0  0
   -2.9373    2.5420    0.2935 C   0  0  0  0  0  0  0  0  0  0  0  0
   -3.8431    1.9155    0.2845 H   0  0  0  0  0  0  0  0  0  0  0  0
   -2.8123    3.2216   -0.5663 H   0  0  0  0  0  0  0  0  0  0  0  0
   -1.2553    1.4508    0.8315 Ru  0  0  0  0  0  0  0  0  0  0  0  0
   -2.3398    1.9488    2.5941 C   0  0  0  0  0  0  0  0  0  0  0  0
   -3.1917    1.2713    2.7344 H   0  0  0  0  0  0  0  0  0  0  0  0
   -1.7160    2.1327    3.4860 H   0  0  0  0  0  0  0  0  0  0  0  0
   -2.7602   -0.4544    1.0031 Cl  0  0  0  0  0  0  0  0  0  0  0  0
    0.1402    2.9031   -0.4392 Cl  0  0  0  0  0  0  0  0  0  0  0  0
   -0.2088   -0.0797   -0.0470 C   0  0  0  0  0  0  0  0  0  0  0  0
    0.0843   -0.4374   -1.3169 N   0  0  0  0  0  0  0  0  0  0  0  0
    0.7852   -1.7431   -1.3431 C   0  0  0  0  0  0  0  0  0  0  0  0
    1.3071   -1.8711    0.0923 C   0  0  0  0  0  0  0  0  0  0  0  0
    0.4238   -0.9285    0.8052 N   0  0  0  0  0  0  0  0  0  0  0  0
    0.0519   -2.5392   -1.5965 H   0  0  0  0  0  0  0  0  0  0  0  0
    1.5867   -1.7450   -2.1019 H   0  0  0  0  0  0  0  0  0  0  0  0
    2.3668   -1.5494    0.1886 H   0  0  0  0  0  0  0  0  0  0  0  0
    1.2088   -2.8948    0.4964 H   0  0  0  0  0  0  0  0  0  0  0  0
    0.4451   -0.6601    2.2192 C   0  0  0  0  0  0  0  0  0  0  0  0
    0.2946   -0.0198    4.9313 C   0  0  0  0  0  0  0  0  0  0  0  0
    1.1632    0.4731    2.6982 C   0  0  0  0  0  0  0  0  0  0  0  0
   -0.2694   -1.5235    3.0904 C   0  0  0  0  0  0  0  0  0  0  0  0
   -0.3325   -1.1756    4.4497 C   0  0  0  0  0  0  0  0  0  0  0  0
    1.0472    0.7824    4.0688 C   0  0  0  0  0  0  0  0  0  0  0  0
   -0.8964   -1.8161    5.1417 H   0  0  0  0  0  0  0  0  0  0  0  0
    1.5753    1.6598    4.4656 H   0  0  0  0  0  0  0  0  0  0  0  0
   -0.2447    0.2508   -2.5373 C   0  0  0  0  0  0  0  0  0  0  0  0
   -0.8195    1.5548   -4.9379 C   0  0  0  0  0  0  0  0  0  0  0  0
    0.7857    0.9794   -3.1886 C   0  0  0  0  0  0  0  0  0  0  0  0
   -1.5437    0.1346   -3.0846 C   0  0  0  0  0  0  0  0  0  0  0  0
   -1.8102    0.8115   -4.2901 C   0  0  0  0  0  0  0  0  0  0  0  0
    0.4684    1.6262   -4.3950 C   0  0  0  0  0  0  0  0  0  0  0  0
   -2.8153    0.7426   -4.7299 H   0  0  0  0  0  0  0  0  0  0  0  0
    1.2455    2.2048   -4.9143 H   0  0  0  0  0  0  0  0  0  0  0  0
   -2.6101   -0.7454   -2.4552 C   0  0  0  0  0  0  0  0  0  0  0  0
   -2.3048   -0.9710   -1.4162 H   0  0  0  0  0  0  0  0  0  0  0  0
    2.2145    1.0330   -2.6601 C   0  0  0  0  0  0  0  0  0  0  0  0
    2.1952    0.6742   -1.6105 H   0  0  0  0  0  0  0  0  0  0  0  0
   -0.8990   -2.8179    2.5972 C   0  0  0  0  0  0  0  0  0  0  0  0
   -1.0514   -2.7060    1.5050 H   0  0  0  0  0  0  0  0  0  0  0  0
    2.1660    1.2330    1.8351 C   0  0  0  0  0  0  0  0  0  0  0  0
    1.8268    1.1993    0.7813 H   0  0  0  0  0  0  0  0  0  0  0  0
    2.8024    2.4527   -2.6445 C   0  0  0  0  0  0  0  0  0  0  0  0
    3.8075    2.4400   -2.1749 H   0  0  0  0  0  0  0  0  0  0  0  0
    2.1579    3.1434   -2.0708 H   0  0  0  0  0  0  0  0  0  0  0  0
    2.9275    2.8544   -3.6711 H   0  0  0  0  0  0  0  0  0  0  0  0
    3.1262    0.1029   -3.4864 C   0  0  0  0  0  0  0  0  0  0  0  0
    4.1489    0.0701   -3.0575 H   0  0  0  0  0  0  0  0  0  0  0  0
    3.2089    0.4691   -4.5308 H   0  0  0  0  0  0  0  0  0  0  0  0
    2.7403   -0.9355   -3.5403 H   0  0  0  0  0  0  0  0  0  0  0  0
   -3.9734   -0.0468   -2.3644 C   0  0  0  0  0  0  0  0  0  0  0  0
   -4.6763   -0.6667   -1.7736 H   0  0  0  0  0  0  0  0  0  0  0  0
   -4.4266    0.1193   -3.3642 H   0  0  0  0  0  0  0  0  0  0  0  0
   -3.8792    0.9318   -1.8570 H   0  0  0  0  0  0  0  0  0  0  0  0
   -2.7209   -2.0737   -3.2270 C   0  0  0  0  0  0  0  0  0  0  0  0
   -3.4611   -2.7436   -2.7432 H   0  0  0  0  0  0  0  0  0  0  0  0
   -1.7489   -2.6073   -3.2672 H   0  0  0  0  0  0  0  0  0  0  0  0
   -3.0471   -1.9035   -4.2748 H   0  0  0  0  0  0  0  0  0  0  0  0
    0.0625   -3.9946    2.8615 C   0  0  0  0  0  0  0  0  0  0  0  0
    0.2059   -4.1436    3.9522 H   0  0  0  0  0  0  0  0  0  0  0  0
    1.0673   -3.8251    2.4237 H   0  0  0  0  0  0  0  0  0  0  0  0
   -0.3452   -4.9369    2.4412 H   0  0  0  0  0  0  0  0  0  0  0  0
   -2.2719   -3.1036    3.2211 C   0  0  0  0  0  0  0  0  0  0  0  0
   -2.1956   -3.3204    4.3069 H   0  0  0  0  0  0  0  0  0  0  0  0
   -2.7242   -3.9962    2.7437 H   0  0  0  0  0  0  0  0  0  0  0  0
   -2.9544   -2.2463    3.0721 H   0  0  0  0  0  0  0  0  0  0  0  0
    3.5413    0.5400    1.9280 C   0  0  0  0  0  0  0  0  0  0  0  0
    4.2720    1.0353    1.2559 H   0  0  0  0  0  0  0  0  0  0  0  0
    3.4888   -0.5320    1.6516 H   0  0  0  0  0  0  0  0  0  0  0  0
    3.9371    0.5919    2.9637 H   0  0  0  0  0  0  0  0  0  0  0  0
    2.3004    2.7146    2.2078 C   0  0  0  0  0  0  0  0  0  0  0  0
    2.9198    3.2358    1.4522 H   0  0  0  0  0  0  0  0  0  0  0  0
    2.7925    2.8510    3.1931 H   0  0  0  0  0  0  0  0  0  0  0  0
    1.3131    3.2133    2.2264 H   0  0  0  0  0  0  0  0  0  0  0  0
    0.2140    0.2448    5.9960 H   0  0  0  0  0  0  0  0  0  0  0  0
   -1.0490    2.0771   -5.8783 H   0  0  0  0  0  0  0  0  0  0  0  0
  1  2  1  0  0  0  0
  1  7  1  0  0  0  0
  2  3  1  0  0  0  0
  2  4  1  0  0  0  0
  4  5  1  0  0  0  0
  6  4  1  0  0  0  0
  7  8  1  0  0  0  0
  7  4  1  0  0  0  0
  8  2  1  0  0  0  0
  8  9  1  0  0  0  0
 10  8  1  0  0  0  0
  7 11  1  0  0  0  0
  7 12  1  0  0  0  0
 13 14  1  0  0  0  0
 13 17  1  0  0  0  0
 14 15  1  0  0  0  0
 15 18  1  0  0  0  0
 15 19  1  0  0  0  0
 15 16  1  0  0  0  0
 16 20  1  0  0  0  0
 16 21  1  0  0  0  0
 16 17  1  0  0  0  0
 22 25  2  0  0  0  0
 25 26  1  0  0  0  0
 23 26  2  0  0  0  0
 23 27  1  0  0  0  0
 24 27  2  0  0  0  0
 22 24  1  0  0  0  0
 26 28  1  0  0  0  0
 27 29  1  0  0  0  0
 17 22  1  0  0  0  0
 30 33  2  0  0  0  0
 33 34  1  0  0  0  0
 31 34  2  0  0  0  0
 31 35  1  0  0  0  0
 32 35  2  0  0  0  0
 30 32  1  0  0  0  0
 34 36  1  0  0  0  0
 35 37  1  0  0  0  0
 14 30  1  0  0  0  0
 38 39  1  0  0  0  0
 33 38  1  0  0  0  0
 40 41  1  0  0  0  0
 32 40  1  0  0  0  0
 42 43  1  0  0  0  0
 25 42  1  0  0  0  0
 44 45  1  0  0  0  0
 24 44  1  0  0  0  0
 46 47  1  0  0  0  0
 46 48  1  0  0  0  0
 46 49  1  0  0  0  0
 40 46  1  0  0  0  0
 50 51  1  0  0  0  0
 50 52  1  0  0  0  0
 50 53  1  0  0  0  0
 40 50  1  0  0  0  0
 54 55  1  0  0  0  0
 54 56  1  0  0  0  0
 54 57  1  0  0  0  0
 38 54  1  0  0  0  0
 58 59  1  0  0  0  0
 58 60  1  0  0  0  0
 58 61  1  0  0  0  0
 38 58  1  0  0  0  0
 62 63  1  0  0  0  0
 62 64  1  0  0  0  0
 62 65  1  0  0  0  0
 42 62  1  0  0  0  0
 66 67  1  0  0  0  0
 66 68  1  0  0  0  0
 66 69  1  0  0  0  0
 42 66  1  0  0  0  0
 70 71  1  0  0  0  0
 70 72  1  0  0  0  0
 70 73  1  0  0  0  0
 44 70  1  0  0  0  0
 74 75  1  0  0  0  0
 74 76  1  0  0  0  0
 74 77  1  0  0  0  0
 44 74  1  0  0  0  0
 23 78  1  0  0  0  0
 31 79  1  0  0  0  0
  7 13  1  0  0  0  0
M  END
>  <DFT-ENERGY>
-2292.41906569

$$$$
