
  CDK     07312414493D

 79 82  0  0  0  0  0  0  0  0999 V2000
    0.0032    0.0129    1.9052 Ru  0  0  0  0  0  0  0  0  0  0  0  0
   -0.1658    1.3598    3.3172 C   0  0  0  0  0  0  0  0  0  0  0  0
   -1.1701    1.8074    3.4231 H   0  0  0  0  0  0  0  0  0  0  0  0
    0.0105    0.0292    4.1556 C   0  0  0  0  0  0  0  0  0  0  0  0
   -0.9108   -0.0878    4.7546 H   0  0  0  0  0  0  0  0  0  0  0  0
    0.1837   -1.3131    3.3356 C   0  0  0  0  0  0  0  0  0  0  0  0
    1.1892   -1.7576    3.4420 H   0  0  0  0  0  0  0  0  0  0  0  0
   -0.6688   -2.0067    3.4437 H   0  0  0  0  0  0  0  0  0  0  0  0
    0.9346    0.1548    4.7484 H   0  0  0  0  0  0  0  0  0  0  0  0
    0.6883    2.0536    3.4101 H   0  0  0  0  0  0  0  0  0  0  0  0
   -2.3539   -0.3426    1.9830 Cl  0  0  0  0  0  0  0  0  0  0  0  0
    2.3615    0.3685    1.9605 Cl  0  0  0  0  0  0  0  0  0  0  0  0
    0.0010   -0.0010   -0.0745 C   0  0  0  0  0  0  0  0  0  0  0  0
   -0.0882   -1.1096   -0.8497 N   0  0  0  0  0  0  0  0  0  0  0  0
    0.1528   -0.7694   -2.2689 C   0  0  0  0  0  0  0  0  0  0  0  0
   -0.1408    0.7336   -2.2813 C   0  0  0  0  0  0  0  0  0  0  0  0
    0.0927    1.0956   -0.8662 N   0  0  0  0  0  0  0  0  0  0  0  0
    1.2088   -0.9900   -2.5366 H   0  0  0  0  0  0  0  0  0  0  0  0
   -0.5135   -1.3495   -2.9314 H   0  0  0  0  0  0  0  0  0  0  0  0
   -1.1952    0.9503   -2.5581 H   0  0  0  0  0  0  0  0  0  0  0  0
    0.5295    1.3032   -2.9489 H   0  0  0  0  0  0  0  0  0  0  0  0
    0.1529    2.4459   -0.3665 C   0  0  0  0  0  0  0  0  0  0  0  0
    0.3094    5.0320    0.6674 C   0  0  0  0  0  0  0  0  0  0  0  0
   -1.0421    3.0935    0.0432 C   0  0  0  0  0  0  0  0  0  0  0  0
    1.4185    3.0871   -0.3102 C   0  0  0  0  0  0  0  0  0  0  0  0
    1.4681    4.3884    0.2193 C   0  0  0  0  0  0  0  0  0  0  0  0
   -0.9311    4.3938    0.5707 C   0  0  0  0  0  0  0  0  0  0  0  0
    2.4363    4.9029    0.2875 H   0  0  0  0  0  0  0  0  0  0  0  0
   -1.8381    4.9149    0.9059 H   0  0  0  0  0  0  0  0  0  0  0  0
   -0.1539   -2.4519   -0.3295 C   0  0  0  0  0  0  0  0  0  0  0  0
   -0.3211   -5.0211    0.7439 C   0  0  0  0  0  0  0  0  0  0  0  0
   -1.4228   -3.0853   -0.2600 C   0  0  0  0  0  0  0  0  0  0  0  0
    1.0387   -3.0994    0.0873 C   0  0  0  0  0  0  0  0  0  0  0  0
    0.9224   -4.3910    0.6344 C   0  0  0  0  0  0  0  0  0  0  0  0
   -1.4778   -4.3782    0.2894 C   0  0  0  0  0  0  0  0  0  0  0  0
    1.8276   -4.9117    0.9752 H   0  0  0  0  0  0  0  0  0  0  0  0
   -2.4484   -4.8863    0.3683 H   0  0  0  0  0  0  0  0  0  0  0  0
    2.4153   -2.4845   -0.1260 C   0  0  0  0  0  0  0  0  0  0  0  0
    2.2985   -1.3831   -0.1703 H   0  0  0  0  0  0  0  0  0  0  0  0
   -2.6825   -2.4351   -0.8150 C   0  0  0  0  0  0  0  0  0  0  0  0
   -2.5178   -1.3391   -0.7999 H   0  0  0  0  0  0  0  0  0  0  0  0
    2.6802    2.4356   -0.8587 C   0  0  0  0  0  0  0  0  0  0  0  0
    2.5193    1.3392   -0.8322 H   0  0  0  0  0  0  0  0  0  0  0  0
   -2.4164    2.4694   -0.1586 C   0  0  0  0  0  0  0  0  0  0  0  0
   -2.2954    1.3679   -0.1847 H   0  0  0  0  0  0  0  0  0  0  0  0
   -3.9358   -2.7228    0.0230 C   0  0  0  0  0  0  0  0  0  0  0  0
   -4.7839   -2.1143   -0.3504 H   0  0  0  0  0  0  0  0  0  0  0  0
   -3.7675   -2.4624    1.0842 H   0  0  0  0  0  0  0  0  0  0  0  0
   -4.2441   -3.7867   -0.0475 H   0  0  0  0  0  0  0  0  0  0  0  0
   -2.9100   -2.8890   -2.2715 C   0  0  0  0  0  0  0  0  0  0  0  0
   -3.7861   -2.3696   -2.7114 H   0  0  0  0  0  0  0  0  0  0  0  0
   -3.1063   -3.9808   -2.3122 H   0  0  0  0  0  0  0  0  0  0  0  0
   -2.0326   -2.6940   -2.9205 H   0  0  0  0  0  0  0  0  0  0  0  0
    3.3971   -2.7764    1.0165 C   0  0  0  0  0  0  0  0  0  0  0  0
    4.3303   -2.1997    0.8629 H   0  0  0  0  0  0  0  0  0  0  0  0
    3.6732   -3.8505    1.0623 H   0  0  0  0  0  0  0  0  0  0  0  0
    2.9797   -2.4667    1.9923 H   0  0  0  0  0  0  0  0  0  0  0  0
    3.0003   -2.9818   -1.4639 C   0  0  0  0  0  0  0  0  0  0  0  0
    3.9717   -2.4883   -1.6727 H   0  0  0  0  0  0  0  0  0  0  0  0
    2.3219   -2.7867   -2.3186 H   0  0  0  0  0  0  0  0  0  0  0  0
    3.1743   -4.0777   -1.4300 H   0  0  0  0  0  0  0  0  0  0  0  0
    2.9058    2.8754   -2.3198 C   0  0  0  0  0  0  0  0  0  0  0  0
    3.0991    3.9674   -2.3717 H   0  0  0  0  0  0  0  0  0  0  0  0
    2.0286    2.6717   -2.9664 H   0  0  0  0  0  0  0  0  0  0  0  0
    3.7832    2.3541   -2.7550 H   0  0  0  0  0  0  0  0  0  0  0  0
    3.9325    2.7362   -0.0237 C   0  0  0  0  0  0  0  0  0  0  0  0
    4.2364    3.8008   -0.1041 H   0  0  0  0  0  0  0  0  0  0  0  0
    4.7831    2.1277   -0.3914 H   0  0  0  0  0  0  0  0  0  0  0  0
    3.7652    2.4852    1.0399 H   0  0  0  0  0  0  0  0  0  0  0  0
   -3.0041    2.9415   -1.5045 C   0  0  0  0  0  0  0  0  0  0  0  0
   -3.9738    2.4409   -1.7040 H   0  0  0  0  0  0  0  0  0  0  0  0
   -2.3256    2.7342   -2.3562 H   0  0  0  0  0  0  0  0  0  0  0  0
   -3.1821    4.0372   -1.4893 H   0  0  0  0  0  0  0  0  0  0  0  0
   -3.3987    2.7769    0.9793 C   0  0  0  0  0  0  0  0  0  0  0  0
   -4.3290    2.1929    0.8369 H   0  0  0  0  0  0  0  0  0  0  0  0
   -3.6801    3.8502    1.0058 H   0  0  0  0  0  0  0  0  0  0  0  0
   -2.9790    2.4869    1.9601 H   0  0  0  0  0  0  0  0  0  0  0  0
    0.3732    6.0463    1.0883 H   0  0  0  0  0  0  0  0  0  0  0  0
   -0.3892   -6.0286    1.1802 H   0  0  0  0  0  0  0  0  0  0  0  0
  2  4  1  0  0  0  0
  2  1  1  0  0  0  0
  2  3  1  0  0  0  0
  4  6  1  0  0  0  0
  4  5  1  0  0  0  0
  6  1  1  0  0  0  0
  6  8  1  0  0  0  0
  7  6  1  0  0  0  0
  9  4  1  0  0  0  0
 10  2  1  0  0  0  0
  1 11  1  0  0  0  0
  1 12  1  0  0  0  0
 13 14  1  0  0  0  0
 13 17  1  0  0  0  0
 14 15  1  0  0  0  0
 15 18  1  0  0  0  0
 15 19  1  0  0  0  0
 15 16  1  0  0  0  0
 16 20  1  0  0  0  0
 16 21  1  0  0  0  0
 16 17  1  0  0  0  0
 22 25  2  0  0  0  0
 25 26  1  0  0  0  0
 23 26  2  0  0  0  0
 23 27  1  0  0  0  0
 24 27  2  0  0  0  0
 22 24  1  0  0  0  0
 26 28  1  0  0  0  0
 27 29  1  0  0  0  0
 17 22  1  0  0  0  0
 30 33  2  0  0  0  0
 33 34  1  0  0  0  0
 31 34  2  0  0  0  0
 31 35  1  0  0  0  0
 32 35  2  0  0  0  0
 30 32  1  0  0  0  0
 34 36  1  0  0  0  0
 35 37  1  0  0  0  0
 14 30  1  0  0  0  0
 38 39  1  0  0  0  0
 33 38  1  0  0  0  0
 40 41  1  0  0  0  0
 32 40  1  0  0  0  0
 42 43  1  0  0  0  0
 25 42  1  0  0  0  0
 44 45  1  0  0  0  0
 24 44  1  0  0  0  0
 46 47  1  0  0  0  0
 46 48  1  0  0  0  0
 46 49  1  0  0  0  0
 40 46  1  0  0  0  0
 50 51  1  0  0  0  0
 50 52  1  0  0  0  0
 50 53  1  0  0  0  0
 40 50  1  0  0  0  0
 54 55  1  0  0  0  0
 54 56  1  0  0  0  0
 54 57  1  0  0  0  0
 38 54  1  0  0  0  0
 58 59  1  0  0  0  0
 58 60  1  0  0  0  0
 58 61  1  0  0  0  0
 38 58  1  0  0  0  0
 62 63  1  0  0  0  0
 62 64  1  0  0  0  0
 62 65  1  0  0  0  0
 42 62  1  0  0  0  0
 66 67  1  0  0  0  0
 66 68  1  0  0  0  0
 66 69  1  0  0  0  0
 42 66  1  0  0  0  0
 70 71  1  0  0  0  0
 70 72  1  0  0  0  0
 70 73  1  0  0  0  0
 44 70  1  0  0  0  0
 74 75  1  0  0  0  0
 74 76  1  0  0  0  0
 74 77  1  0  0  0  0
 44 74  1  0  0  0  0
 23 78  1  0  0  0  0
 31 79  1  0  0  0  0
  1 13  1  0  0  0  0
M  END
>  <DFT-ENERGY>
-2292.46274221

$$$$
