DIPP_A2
  CDK     07302413233D

 93 97  0  0  0  0  0  0  0  0999 V2000
    0.9877   -0.0549   -0.8357 Ru  0  0  0  0  0  0  0  0  0  0  0  0
    2.7655   -0.0549   -2.2249 O   0  0  0  0  0  0  0  0  0  0  0  0
    2.1979    0.8784    0.1684 C   0  0  0  0  0  0  0  0  0  0  0  0
    1.9651    1.1713    1.1911 H   0  0  0  0  0  0  0  0  0  0  0  0
    3.0010   -0.8301   -3.4507 C   0  0  0  0  0  0  0  0  0  0  0  0
    3.4079   -0.1295   -4.2101 H   0  0  0  0  0  0  0  0  0  0  0  0
    1.5785   -1.2731   -3.7632 C   0  0  0  0  0  0  0  0  0  0  0  0
    0.8902   -0.4029   -3.7719 H   0  0  0  0  0  0  0  0  0  0  0  0
    1.5065   -1.7766   -4.7303 H   0  0  0  0  0  0  0  0  0  0  0  0
    1.1941   -1.9680   -2.9877 H   0  0  0  0  0  0  0  0  0  0  0  0
    3.9411   -1.9748   -3.1191 C   0  0  0  0  0  0  0  0  0  0  0  0
    3.9424   -2.7410   -3.9008 H   0  0  0  0  0  0  0  0  0  0  0  0
    4.9728   -1.6437   -2.9609 H   0  0  0  0  0  0  0  0  0  0  0  0
    3.6180   -2.4666   -2.1798 H   0  0  0  0  0  0  0  0  0  0  0  0
    3.7577    0.7435   -1.7199 C   0  0  0  0  0  0  0  0  0  0  0  0
    4.9268    1.0923   -2.3729 C   0  0  0  0  0  0  0  0  0  0  0  0
    5.1459    0.7418   -3.3788 H   0  0  0  0  0  0  0  0  0  0  0  0
    5.8280    1.9233   -1.7154 C   0  0  0  0  0  0  0  0  0  0  0  0
    6.7506    2.2108   -2.2241 H   0  0  0  0  0  0  0  0  0  0  0  0
    5.5780    2.3949   -0.4301 C   0  0  0  0  0  0  0  0  0  0  0  0
    6.3028    3.0394    0.0643 H   0  0  0  0  0  0  0  0  0  0  0  0
    4.4083    2.0346    0.2115 C   0  0  0  0  0  0  0  0  0  0  0  0
    4.2151    2.3892    1.2228 H   0  0  0  0  0  0  0  0  0  0  0  0
    3.4728    1.2192   -0.4279 C   0  0  0  0  0  0  0  0  0  0  0  0
    1.5895   -2.2549   -0.2734 Cl  0  0  0  0  0  0  0  0  0  0  0  0
    0.1634    1.6536   -2.1969 Cl  0  0  0  0  0  0  0  0  0  0  0  0
   -0.6286   -0.0226    0.3027 C   0  0  0  0  0  0  0  0  0  0  0  0
   -0.9444    0.6620    1.4768 N   0  0  0  0  0  0  0  0  0  0  0  0
   -2.3783    0.4946    1.9158 C   0  0  0  0  0  0  0  0  0  0  0  0
   -2.9543   -0.4758    0.8756 C   0  0  0  0  0  0  0  0  0  0  0  0
   -1.7972   -0.7061   -0.0593 N   0  0  0  0  0  0  0  0  0  0  0  0
   -2.4215    0.0946    2.9486 H   0  0  0  0  0  0  0  0  0  0  0  0
   -2.8886    1.4796    1.9116 H   0  0  0  0  0  0  0  0  0  0  0  0
   -3.8182   -0.0489    0.3125 H   0  0  0  0  0  0  0  0  0  0  0  0
   -3.2801   -1.4477    1.3192 H   0  0  0  0  0  0  0  0  0  0  0  0
   -2.0559   -1.5849   -1.1809 C   0  0  0  0  0  0  0  0  0  0  0  0
   -2.6985   -3.2889   -3.3003 C   0  0  0  0  0  0  0  0  0  0  0  0
   -2.6209   -1.0454   -2.3631 C   0  0  0  0  0  0  0  0  0  0  0  0
   -1.8734   -2.9823   -1.0305 C   0  0  0  0  0  0  0  0  0  0  0  0
   -2.1922   -3.8158   -2.1125 C   0  0  0  0  0  0  0  0  0  0  0  0
   -2.9223   -1.9175   -3.4188 C   0  0  0  0  0  0  0  0  0  0  0  0
   -2.0502   -4.8928   -2.0211 H   0  0  0  0  0  0  0  0  0  0  0  0
   -3.3472   -1.5180   -4.3397 H   0  0  0  0  0  0  0  0  0  0  0  0
   -0.1287    1.4957    2.3307 C   0  0  0  0  0  0  0  0  0  0  0  0
    1.2915    3.1363    4.0873 C   0  0  0  0  0  0  0  0  0  0  0  0
   -0.0085    2.8757    2.0472 C   0  0  0  0  0  0  0  0  0  0  0  0
    0.4710    0.9273    3.4820 C   0  0  0  0  0  0  0  0  0  0  0  0
    1.1854    1.7683    4.3450 C   0  0  0  0  0  0  0  0  0  0  0  0
    0.7034    3.6829    2.9477 C   0  0  0  0  0  0  0  0  0  0  0  0
    1.6677    1.3488    5.2279 H   0  0  0  0  0  0  0  0  0  0  0  0
    0.8000    4.7497    2.7463 H   0  0  0  0  0  0  0  0  0  0  0  0
    0.4004   -0.5647    3.7622 C   0  0  0  0  0  0  0  0  0  0  0  0
   -0.4862   -1.0044    3.2348 H   0  0  0  0  0  0  0  0  0  0  0  0
   -0.5975    3.4977    0.7927 C   0  0  0  0  0  0  0  0  0  0  0  0
   -1.0879    2.7025    0.1657 H   0  0  0  0  0  0  0  0  0  0  0  0
   -1.4105   -3.5948    0.2819 C   0  0  0  0  0  0  0  0  0  0  0  0
   -0.7845   -2.8398    0.8327 H   0  0  0  0  0  0  0  0  0  0  0  0
   -2.9734    0.4283   -2.4839 C   0  0  0  0  0  0  0  0  0  0  0  0
   -2.3426    1.0183   -1.7632 H   0  0  0  0  0  0  0  0  0  0  0  0
    0.5187    4.1011   -0.0679 C   0  0  0  0  0  0  0  0  0  0  0  0
    0.1242    4.4353   -1.0366 H   0  0  0  0  0  0  0  0  0  0  0  0
    1.2808    3.3389   -0.3044 H   0  0  0  0  0  0  0  0  0  0  0  0
    1.0162    4.9481    0.4087 H   0  0  0  0  0  0  0  0  0  0  0  0
   -1.6613    4.5398    1.1607 C   0  0  0  0  0  0  0  0  0  0  0  0
   -2.1444    4.9332    0.2585 H   0  0  0  0  0  0  0  0  0  0  0  0
   -1.2309    5.3938    1.6947 H   0  0  0  0  0  0  0  0  0  0  0  0
   -2.4404    4.1103    1.7979 H   0  0  0  0  0  0  0  0  0  0  0  0
    1.6579   -1.2305    3.1923 C   0  0  0  0  0  0  0  0  0  0  0  0
    1.6431   -2.3155    3.3437 H   0  0  0  0  0  0  0  0  0  0  0  0
    2.5755   -0.8435    3.6447 H   0  0  0  0  0  0  0  0  0  0  0  0
    1.7326   -1.0699    2.1005 H   0  0  0  0  0  0  0  0  0  0  0  0
    0.2302   -0.8677    5.2563 C   0  0  0  0  0  0  0  0  0  0  0  0
    0.0471   -1.9363    5.4166 H   0  0  0  0  0  0  0  0  0  0  0  0
   -0.6120   -0.3151    5.6851 H   0  0  0  0  0  0  0  0  0  0  0  0
    1.1253   -0.6084    5.8333 H   0  0  0  0  0  0  0  0  0  0  0  0
   -2.6438   -3.9346    1.1351 C   0  0  0  0  0  0  0  0  0  0  0  0
   -3.3094   -4.6356    0.6198 H   0  0  0  0  0  0  0  0  0  0  0  0
   -3.2268   -3.0315    1.3707 H   0  0  0  0  0  0  0  0  0  0  0  0
   -2.3474   -4.3983    2.0818 H   0  0  0  0  0  0  0  0  0  0  0  0
   -0.5377   -4.8382    0.0777 C   0  0  0  0  0  0  0  0  0  0  0  0
   -1.0995   -5.6889   -0.3171 H   0  0  0  0  0  0  0  0  0  0  0  0
   -0.0789   -5.1495    1.0229 H   0  0  0  0  0  0  0  0  0  0  0  0
    0.2897   -4.6231   -0.6148 H   0  0  0  0  0  0  0  0  0  0  0  0
   -4.4508    0.6176   -2.1037 C   0  0  0  0  0  0  0  0  0  0  0  0
   -4.7482    1.6671   -2.2039 H   0  0  0  0  0  0  0  0  0  0  0  0
   -4.6317    0.3143   -1.0619 H   0  0  0  0  0  0  0  0  0  0  0  0
   -5.1130    0.0254   -2.7443 H   0  0  0  0  0  0  0  0  0  0  0  0
   -2.6878    0.9847   -3.8827 C   0  0  0  0  0  0  0  0  0  0  0  0
   -2.8323    2.0714   -3.9041 H   0  0  0  0  0  0  0  0  0  0  0  0
   -3.3284    0.5468   -4.6525 H   0  0  0  0  0  0  0  0  0  0  0  0
   -1.6390    0.8069   -4.1618 H   0  0  0  0  0  0  0  0  0  0  0  0
   -2.9343   -3.9520   -4.1318 H   0  0  0  0  0  0  0  0  0  0  0  0
    1.8409    3.7767    4.7763 H   0  0  0  0  0  0  0  0  0  0  0  0
  2  1  1  0  0  0  0
  3  1  2  0  0  0  0
  4  3  1  0  0  0  0
  5  2  1  0  0  0  0
  6  5  1  0  0  0  0
  7  5  1  0  0  0  0
  8  7  1  0  0  0  0
  9  7  1  0  0  0  0
 10  7  1  0  0  0  0
 11  5  1  0  0  0  0
 12 11  1  0  0  0  0
 13 11  1  0  0  0  0
 14 11  1  0  0  0  0
 15  2  1  0  0  0  0
 15 24  1  0  0  0  0
 16 15  2  0  0  0  0
 17 16  1  0  0  0  0
 18 16  1  0  0  0  0
 19 18  1  0  0  0  0
 20 18  2  0  0  0  0
 21 20  1  0  0  0  0
 22 20  1  0  0  0  0
 22 24  2  0  0  0  0
 23 22  1  0  0  0  0
 24  3  1  0  0  0  0
  1 25  1  0  0  0  0
  1 26  1  0  0  0  0
 27 28  1  0  0  0  0
 27 31  1  0  0  0  0
 28 29  1  0  0  0  0
 29 32  1  0  0  0  0
 29 33  1  0  0  0  0
 29 30  1  0  0  0  0
 30 34  1  0  0  0  0
 30 35  1  0  0  0  0
 30 31  1  0  0  0  0
 36 39  2  0  0  0  0
 39 40  1  0  0  0  0
 37 40  2  0  0  0  0
 37 41  1  0  0  0  0
 38 41  2  0  0  0  0
 36 38  1  0  0  0  0
 40 42  1  0  0  0  0
 41 43  1  0  0  0  0
 31 36  1  0  0  0  0
 44 47  2  0  0  0  0
 47 48  1  0  0  0  0
 45 48  2  0  0  0  0
 45 49  1  0  0  0  0
 46 49  2  0  0  0  0
 44 46  1  0  0  0  0
 48 50  1  0  0  0  0
 49 51  1  0  0  0  0
 28 44  1  0  0  0  0
 52 53  1  0  0  0  0
 47 52  1  0  0  0  0
 54 55  1  0  0  0  0
 46 54  1  0  0  0  0
 56 57  1  0  0  0  0
 39 56  1  0  0  0  0
 58 59  1  0  0  0  0
 38 58  1  0  0  0  0
 60 61  1  0  0  0  0
 60 62  1  0  0  0  0
 60 63  1  0  0  0  0
 54 60  1  0  0  0  0
 64 65  1  0  0  0  0
 64 66  1  0  0  0  0
 64 67  1  0  0  0  0
 54 64  1  0  0  0  0
 68 69  1  0  0  0  0
 68 70  1  0  0  0  0
 68 71  1  0  0  0  0
 52 68  1  0  0  0  0
 72 73  1  0  0  0  0
 72 74  1  0  0  0  0
 72 75  1  0  0  0  0
 52 72  1  0  0  0  0
 76 77  1  0  0  0  0
 76 78  1  0  0  0  0
 76 79  1  0  0  0  0
 56 76  1  0  0  0  0
 80 81  1  0  0  0  0
 80 82  1  0  0  0  0
 80 83  1  0  0  0  0
 56 80  1  0  0  0  0
 84 85  1  0  0  0  0
 84 86  1  0  0  0  0
 84 87  1  0  0  0  0
 58 84  1  0  0  0  0
 88 89  1  0  0  0  0
 88 90  1  0  0  0  0
 88 91  1  0  0  0  0
 58 88  1  0  0  0  0
 37 92  1  0  0  0  0
 45 93  1  0  0  0  0
  1 27  1  0  0  0  0
M  END
> <FrozenCore-PM6_ENERGY>
-34.487

> <RMSD_CONF_CG-CS>
0.387228

> <RMSD_CONF_GO-CS>
0.000000

> <UID>


> <DESCRIPTOR_DEFINITION_1>
desc1=( echo "1 * ( e( $hartree_to_kcalmol * ( ( $freeEnergyZ - $freeEnergyD ) - ( $freeEnergyX + 2*$G_Ethene - $freeEnergyD - 2*$G_Propene ) - $DDG_reference_HGII ) / $kT ) ) " | bc -l )

> <DESCRIPTOR_DEFINITION_2>
desc1=( echo "1 * ( e( $hartree_to_kcalmol * ( ( $freeEnergyZ - $freeEnergyD ) - ( $freeEnergyX + 2*$G_Ethene - $freeEnergyD - 2*$G_Propene ) - $DDG_reference_HGII ) / $kT ) ) " | bc -l )

> <DESCRIPTOR_DEFINITION_3>
desc1=( echo "1 * ( e( $hartree_to_kcalmol * ( ( $freeEnergyZ - $freeEnergyD ) - ( $freeEnergyX + 2*$G_Ethene - $freeEnergyD - 2*$G_Propene ) - $DDG_reference_HGII ) / $kT ) ) " | bc -l )

> <WEIGHT_DEFINITION_1>
w1=$( echo "1 / ( 1 + e( $hartree_to_kcalmol * ( ( ( $freeEnergyX + 2*$G_Ethene - $freeEnergyD - 2*$G_Propene ) ) - ( $DG_referenceProductionBarrier + $magnitude4 ) ) / $kT ) )" | bc -l )

> <WEIGHT_DEFINITION_2>
w1=$( echo "1 / ( 1 + e( $hartree_to_kcalmol * ( ( ( $freeEnergyX + 2*$G_Ethene - $freeEnergyD - 2*$G_Propene ) ) - ( $DG_referenceProductionBarrier + $magnitude4 ) ) / $kT ) )" | bc -l )

> <WEIGHT_DEFINITION_3>
w1=$( echo "1 / ( 1 + e( $hartree_to_kcalmol * ( ( ( $freeEnergyX + 2*$G_Ethene - $freeEnergyD - 2*$G_Propene ) ) - ( $DG_referenceProductionBarrier + $magnitude4 ) ) / $kT ) )" | bc -l )

> <WEIGHT_DEFINITION_4>
w1=$( echo "1 / ( 1 + e( $hartree_to_kcalmol * ( ( ( $freeEnergyX + 2*$G_Ethene - $freeEnergyD - 2*$G_Propene ) ) - ( $DG_referenceProductionBarrier + $magnitude4 ) ) / $kT ) )" | bc -l )

> <CALCULATION_OF_OVERALL_FITNESS>
fitness=$( echo "( $desc1 + $desc2 + $desc3 ) * ( $w1 * $w2 * $w3 * $w4 )" | bc -l )

> <freeEnergyA>
-2637.6935278

> <freeEnergyF>
-2637.67043728

> <freeEnergyE>
-2637.6935278

> <freeEnergyC>
-2292.43655323

> <freeEnergyL>
-1159.83069973

> <freeEnergyX>
-2370.97341187

> <freeEnergyZ>
-2292.41906532

> <freeEnergyD>
-2292.46274211

> <G_Propene>
-117.738020895

> <G_Ethene>
-78.4716324751

> <G_HoveydaProd>
-502.204109499

> <G_SIMes>
-924.27249048

> <G_HG_RuCl2_SIMes>
-2402.13728523

> <DG_referenceProductionBarrier>
0.01468968

> <DG_referencePrecursorStabilityHII>
-0.0052201621

> <DG_referencePrecursorStabilityHI>
0.0117775312

> <DDG_referencePrecursorStability>
.0169976933

> <DG_referenceSynt>
0.0226072217

> <hartree_to_kcalmol>
627.49467516

> <boltzmann_constant>
0.0000000000000000000000138066

> <avogadro_number>
602214000000000000000000

> <jmol_to_kcalmol>
0.00023901

> <temp>
313.15

> <kT>
.6223089948281258706000000000

> <magnitude1>
1.43290809

> <magnitude2>
2.86581618

> <magnitude3>
4.29872427

> <magnitude4>
5.73163236

> <DFT_IDENTIFIER>
1722435798055

> <DFT_MACHINE>
158.36.42.38

> <XTB_IDENTIFIER>
NREC

> <XTB_MACHINE>
NREC

> <DESCRIPTOR_1>
.51319728274241704049

> <DESCRIPTOR_2>
13.534878295244338632

> <DESCRIPTOR_3>
.103125612389170200

> <WEIGHT_1>
.99991527220002060714

> <WEIGHT_2>
.99999998594752210310

> <WEIGHT_3>
.99999999990853857656

> <WEIGHT_4>
.99999999226723050150

> <FITNESS>
14.15000188067652341880

$$$$
