
  CDK     07312403503D

 85 88  0  0  0  0  0  0  0  0999 V2000
   -1.2440   -3.5292   -1.8055 C   0  0  0  0  0  0  0  0  0  0  0  0
   -0.3051   -3.6549   -2.3724 H   0  0  0  0  0  0  0  0  0  0  0  0
   -1.9326   -4.3752   -2.0263 H   0  0  0  0  0  0  0  0  0  0  0  0
   -1.7488   -2.6109   -2.1711 H   0  0  0  0  0  0  0  0  0  0  0  0
   -1.0065   -3.4777   -0.3145 C   0  0  0  0  0  0  0  0  0  0  0  0
   -1.9169   -3.4347    0.3124 H   0  0  0  0  0  0  0  0  0  0  0  0
    0.1357   -4.0167    0.3375 C   0  0  0  0  0  0  0  0  0  0  0  0
    0.9818   -4.3145   -0.3061 H   0  0  0  0  0  0  0  0  0  0  0  0
   -0.0137   -4.7009    1.6773 C   0  0  0  0  0  0  0  0  0  0  0  0
    0.9522   -4.8400    2.1985 H   0  0  0  0  0  0  0  0  0  0  0  0
   -0.4522   -5.7085    1.5107 H   0  0  0  0  0  0  0  0  0  0  0  0
   -0.7030   -4.1307    2.3309 H   0  0  0  0  0  0  0  0  0  0  0  0
    1.3250   -2.2553    1.2698 C   0  0  0  0  0  0  0  0  0  0  0  0
    1.1127   -2.3468    2.3563 H   0  0  0  0  0  0  0  0  0  0  0  0
    2.3460   -2.5206    0.9184 H   0  0  0  0  0  0  0  0  0  0  0  0
    0.0654   -1.6335    0.0984 Ru  0  0  0  0  0  0  0  0  0  0  0  0
   -1.4953   -1.4134    1.9241 Cl  0  0  0  0  0  0  0  0  0  0  0  0
    1.6191   -1.9513   -1.6973 Cl  0  0  0  0  0  0  0  0  0  0  0  0
    0.0171    0.3585    0.0516 C   0  0  0  0  0  0  0  0  0  0  0  0
   -0.8766    1.0404   -0.7184 N   0  0  0  0  0  0  0  0  0  0  0  0
   -1.0785    2.4123   -0.2138 C   0  0  0  0  0  0  0  0  0  0  0  0
    0.2051    2.6315    0.5909 C   0  0  0  0  0  0  0  0  0  0  0  0
    0.6268    1.2430    0.8852 N   0  0  0  0  0  0  0  0  0  0  0  0
   -1.2058    3.1288   -1.0459 H   0  0  0  0  0  0  0  0  0  0  0  0
   -1.9819    2.4521    0.4320 H   0  0  0  0  0  0  0  0  0  0  0  0
    0.0360    3.1954    1.5252 H   0  0  0  0  0  0  0  0  0  0  0  0
    0.9902    3.1486   -0.0020 H   0  0  0  0  0  0  0  0  0  0  0  0
    1.6900    0.9442    1.8034 C   0  0  0  0  0  0  0  0  0  0  0  0
    3.7521    0.4050    3.6120 C   0  0  0  0  0  0  0  0  0  0  0  0
    1.4072    0.9497    3.1931 C   0  0  0  0  0  0  0  0  0  0  0  0
    2.9958    0.6849    1.3027 C   0  0  0  0  0  0  0  0  0  0  0  0
    4.0105    0.4074    2.2364 C   0  0  0  0  0  0  0  0  0  0  0  0
    2.4647    0.6796    4.0820 C   0  0  0  0  0  0  0  0  0  0  0  0
    5.0257    0.1949    1.8754 H   0  0  0  0  0  0  0  0  0  0  0  0
    2.2679    0.6770    5.1634 H   0  0  0  0  0  0  0  0  0  0  0  0
   -1.6065    0.4466   -1.8054 C   0  0  0  0  0  0  0  0  0  0  0  0
   -2.9940   -0.6887   -3.9458 C   0  0  0  0  0  0  0  0  0  0  0  0
   -2.9476    0.0281   -1.6106 C   0  0  0  0  0  0  0  0  0  0  0  0
   -0.9507    0.3241   -3.0637 C   0  0  0  0  0  0  0  0  0  0  0  0
   -1.6702   -0.2636   -4.1181 C   0  0  0  0  0  0  0  0  0  0  0  0
   -3.6258   -0.5368   -2.7086 C   0  0  0  0  0  0  0  0  0  0  0  0
   -1.1855   -0.3885   -5.0949 H   0  0  0  0  0  0  0  0  0  0  0  0
   -4.6656   -0.8694   -2.5828 H   0  0  0  0  0  0  0  0  0  0  0  0
    0.4607    0.8549   -3.2846 C   0  0  0  0  0  0  0  0  0  0  0  0
    1.0316    0.6524   -2.3574 H   0  0  0  0  0  0  0  0  0  0  0  0
   -3.6726    0.2205   -0.2873 C   0  0  0  0  0  0  0  0  0  0  0  0
   -2.9048    0.3679    0.4983 H   0  0  0  0  0  0  0  0  0  0  0  0
    3.3223    0.7549   -0.1831 C   0  0  0  0  0  0  0  0  0  0  0  0
    2.4081    0.4753   -0.7425 H   0  0  0  0  0  0  0  0  0  0  0  0
    0.0240    1.2690    3.7428 C   0  0  0  0  0  0  0  0  0  0  0  0
   -0.6913    1.1925    2.8997 H   0  0  0  0  0  0  0  0  0  0  0  0
   -4.4872   -1.0130    0.1277 C   0  0  0  0  0  0  0  0  0  0  0  0
   -4.8952   -0.8678    1.1475 H   0  0  0  0  0  0  0  0  0  0  0  0
   -3.8508   -1.9174    0.1530 H   0  0  0  0  0  0  0  0  0  0  0  0
   -5.3449   -1.1950   -0.5527 H   0  0  0  0  0  0  0  0  0  0  0  0
   -4.5770    1.4662   -0.3576 C   0  0  0  0  0  0  0  0  0  0  0  0
   -5.0633    1.6518    0.6220 H   0  0  0  0  0  0  0  0  0  0  0  0
   -5.3779    1.3288   -1.1141 H   0  0  0  0  0  0  0  0  0  0  0  0
   -4.0121    2.3771   -0.6410 H   0  0  0  0  0  0  0  0  0  0  0  0
    1.2077    0.1572   -4.4268 C   0  0  0  0  0  0  0  0  0  0  0  0
    2.2650    0.4894   -4.4349 H   0  0  0  0  0  0  0  0  0  0  0  0
    0.7796    0.4083   -5.4201 H   0  0  0  0  0  0  0  0  0  0  0  0
    1.2008   -0.9405   -4.2925 H   0  0  0  0  0  0  0  0  0  0  0  0
    0.4367    2.3770   -3.5240 C   0  0  0  0  0  0  0  0  0  0  0  0
    1.4695    2.7652   -3.6412 H   0  0  0  0  0  0  0  0  0  0  0  0
   -0.0371    2.9289   -2.6896 H   0  0  0  0  0  0  0  0  0  0  0  0
   -0.1274    2.6217   -4.4482 H   0  0  0  0  0  0  0  0  0  0  0  0
    3.7254    2.1895   -0.5772 C   0  0  0  0  0  0  0  0  0  0  0  0
    4.6679    2.4850   -0.0702 H   0  0  0  0  0  0  0  0  0  0  0  0
    2.9559    2.9360   -0.2983 H   0  0  0  0  0  0  0  0  0  0  0  0
    3.8893    2.2599   -1.6724 H   0  0  0  0  0  0  0  0  0  0  0  0
    4.4139   -0.2317   -0.6164 C   0  0  0  0  0  0  0  0  0  0  0  0
    5.4101    0.0431   -0.2109 H   0  0  0  0  0  0  0  0  0  0  0  0
    4.4928   -0.2348   -1.7212 H   0  0  0  0  0  0  0  0  0  0  0  0
    4.1696   -1.2650   -0.3063 H   0  0  0  0  0  0  0  0  0  0  0  0
   -0.0094    2.6997    4.3147 C   0  0  0  0  0  0  0  0  0  0  0  0
   -1.0328    2.9634    4.6521 H   0  0  0  0  0  0  0  0  0  0  0  0
    0.3166    3.4591    3.5746 H   0  0  0  0  0  0  0  0  0  0  0  0
    0.6687    2.7896    5.1891 H   0  0  0  0  0  0  0  0  0  0  0  0
   -0.4323    0.2592    4.8068 C   0  0  0  0  0  0  0  0  0  0  0  0
   -1.4752    0.4792    5.1123 H   0  0  0  0  0  0  0  0  0  0  0  0
    0.1966    0.3080    5.7199 H   0  0  0  0  0  0  0  0  0  0  0  0
   -0.4106   -0.7705    4.4038 H   0  0  0  0  0  0  0  0  0  0  0  0
    4.5631    0.1882    4.3227 H   0  0  0  0  0  0  0  0  0  0  0  0
   -3.5367   -1.1430   -4.7878 H   0  0  0  0  0  0  0  0  0  0  0  0
  1  2  1  0  0  0  0
  1  5  1  0  0  0  0
  3  1  1  0  0  0  0
  4  1  1  0  0  0  0
  5  6  1  0  0  0  0
  5 16  1  0  0  0  0
  5  7  1  0  0  0  0
  7  9  1  0  0  0  0
  7  8  1  0  0  0  0
  9 10  1  0  0  0  0
 11  9  1  0  0  0  0
 12  9  1  0  0  0  0
 13 14  1  0  0  0  0
 13 15  1  0  0  0  0
 13  7  1  0  0  0  0
 16 13  1  0  0  0  0
 16 17  1  0  0  0  0
 16 18  1  0  0  0  0
 19 20  1  0  0  0  0
 19 23  1  0  0  0  0
 20 21  1  0  0  0  0
 21 24  1  0  0  0  0
 21 25  1  0  0  0  0
 21 22  1  0  0  0  0
 22 26  1  0  0  0  0
 22 27  1  0  0  0  0
 22 23  1  0  0  0  0
 28 31  2  0  0  0  0
 31 32  1  0  0  0  0
 29 32  2  0  0  0  0
 29 33  1  0  0  0  0
 30 33  2  0  0  0  0
 28 30  1  0  0  0  0
 32 34  1  0  0  0  0
 33 35  1  0  0  0  0
 23 28  1  0  0  0  0
 36 39  2  0  0  0  0
 39 40  1  0  0  0  0
 37 40  2  0  0  0  0
 37 41  1  0  0  0  0
 38 41  2  0  0  0  0
 36 38  1  0  0  0  0
 40 42  1  0  0  0  0
 41 43  1  0  0  0  0
 20 36  1  0  0  0  0
 44 45  1  0  0  0  0
 39 44  1  0  0  0  0
 46 47  1  0  0  0  0
 38 46  1  0  0  0  0
 48 49  1  0  0  0  0
 31 48  1  0  0  0  0
 50 51  1  0  0  0  0
 30 50  1  0  0  0  0
 52 53  1  0  0  0  0
 52 54  1  0  0  0  0
 52 55  1  0  0  0  0
 46 52  1  0  0  0  0
 56 57  1  0  0  0  0
 56 58  1  0  0  0  0
 56 59  1  0  0  0  0
 46 56  1  0  0  0  0
 60 61  1  0  0  0  0
 60 62  1  0  0  0  0
 60 63  1  0  0  0  0
 44 60  1  0  0  0  0
 64 65  1  0  0  0  0
 64 66  1  0  0  0  0
 64 67  1  0  0  0  0
 44 64  1  0  0  0  0
 68 69  1  0  0  0  0
 68 70  1  0  0  0  0
 68 71  1  0  0  0  0
 48 68  1  0  0  0  0
 72 73  1  0  0  0  0
 72 74  1  0  0  0  0
 72 75  1  0  0  0  0
 48 72  1  0  0  0  0
 76 77  1  0  0  0  0
 76 78  1  0  0  0  0
 76 79  1  0  0  0  0
 50 76  1  0  0  0  0
 80 81  1  0  0  0  0
 80 82  1  0  0  0  0
 80 83  1  0  0  0  0
 50 80  1  0  0  0  0
 29 84  1  0  0  0  0
 37 85  1  0  0  0  0
 16 19  1  0  0  0  0
M  END
>  <DFT-ENERGY>
-2370.97341207

$$$$
