
  CDK     02052416343D

 70 73  0  0  0  0  0  0  0  0999 V2000
   -0.4012   -4.1449   -2.1654 C   0  0  0  0  0  0  0  0  0  0  0  0
    0.6225   -4.0509   -2.5677 H   0  0  0  0  0  0  0  0  0  0  0  0
   -0.8703   -5.0806   -2.5433 H   0  0  0  0  0  0  0  0  0  0  0  0
   -1.0083   -3.3077   -2.5688 H   0  0  0  0  0  0  0  0  0  0  0  0
   -0.4232   -4.1734   -0.6541 C   0  0  0  0  0  0  0  0  0  0  0  0
   -1.4146   -4.3369   -0.1922 H   0  0  0  0  0  0  0  0  0  0  0  0
    0.6835   -4.5650    0.1445 C   0  0  0  0  0  0  0  0  0  0  0  0
    1.6593   -4.6579   -0.3635 H   0  0  0  0  0  0  0  0  0  0  0  0
    0.4551   -5.3781    1.3978 C   0  0  0  0  0  0  0  0  0  0  0  0
    1.3367   -5.3992    2.0657 H   0  0  0  0  0  0  0  0  0  0  0  0
    0.2414   -6.4259    1.0943 H   0  0  0  0  0  0  0  0  0  0  0  0
   -0.4227   -4.9980    1.9564 H   0  0  0  0  0  0  0  0  0  0  0  0
    1.3789   -2.7300    1.3834 C   0  0  0  0  0  0  0  0  0  0  0  0
    1.0005   -2.9949    2.3953 H   0  0  0  0  0  0  0  0  0  0  0  0
    2.4806   -2.7626    1.2229 H   0  0  0  0  0  0  0  0  0  0  0  0
    0.2461   -2.2258    0.0441 Ru  0  0  0  0  0  0  0  0  0  0  0  0
   -1.6447   -2.4405    1.5238 Cl  0  0  0  0  0  0  0  0  0  0  0  0
    2.1133   -2.1726   -1.4744 Cl  0  0  0  0  0  0  0  0  0  0  0  0
    0.0502    0.1562    0.0071 P   0  0  0  0  0  0  0  0  0  0  0  0
   -1.6384    0.6009   -0.6731 C   0  0  0  0  0  0  0  0  0  0  0  0
   -1.5404    1.6251   -1.0940 H   0  0  0  0  0  0  0  0  0  0  0  0
   -1.9128   -0.3892   -1.8258 C   0  0  0  0  0  0  0  0  0  0  0  0
   -1.0835   -0.3759   -2.5640 H   0  0  0  0  0  0  0  0  0  0  0  0
   -1.9449   -1.4161   -1.3883 H   0  0  0  0  0  0  0  0  0  0  0  0
   -0.2940    0.3607    2.8600 C   0  0  0  0  0  0  0  0  0  0  0  0
   -1.3983    0.4184    2.7731 H   0  0  0  0  0  0  0  0  0  0  0  0
   -0.0576   -0.7193    2.8820 H   0  0  0  0  0  0  0  0  0  0  0  0
   -4.4033   -0.0970   -1.4990 C   0  0  0  0  0  0  0  0  0  0  0  0
   -4.5119   -1.1148   -1.0624 H   0  0  0  0  0  0  0  0  0  0  0  0
   -5.3632    0.1388   -2.0038 H   0  0  0  0  0  0  0  0  0  0  0  0
    1.2558    0.9405   -1.2156 C   0  0  0  0  0  0  0  0  0  0  0  0
    1.3506    0.1250   -1.9657 H   0  0  0  0  0  0  0  0  0  0  0  0
    0.3658    1.0220    1.6401 C   0  0  0  0  0  0  0  0  0  0  0  0
    1.4657    0.8844    1.7501 H   0  0  0  0  0  0  0  0  0  0  0  0
   -2.7967    0.6052    0.3371 C   0  0  0  0  0  0  0  0  0  0  0  0
   -2.8457   -0.3834    0.8385 H   0  0  0  0  0  0  0  0  0  0  0  0
   -2.6147    1.3617    1.1262 H   0  0  0  0  0  0  0  0  0  0  0  0
   -0.1404    2.5560    4.1241 C   0  0  0  0  0  0  0  0  0  0  0  0
   -1.2424    2.7106    4.0787 H   0  0  0  0  0  0  0  0  0  0  0  0
    0.2080    3.0440    5.0581 H   0  0  0  0  0  0  0  0  0  0  0  0
   -4.1269    0.9046   -0.3712 C   0  0  0  0  0  0  0  0  0  0  0  0
   -4.9521    0.8902    0.3706 H   0  0  0  0  0  0  0  0  0  0  0  0
   -4.1015    1.9348   -0.7955 H   0  0  0  0  0  0  0  0  0  0  0  0
   -3.2543   -0.1062   -2.5143 C   0  0  0  0  0  0  0  0  0  0  0  0
   -3.1996    0.8835   -3.0221 H   0  0  0  0  0  0  0  0  0  0  0  0
   -3.4354   -0.8586   -3.3100 H   0  0  0  0  0  0  0  0  0  0  0  0
    0.1554    1.0518    4.1546 C   0  0  0  0  0  0  0  0  0  0  0  0
    1.2502    0.8976    4.2926 H   0  0  0  0  0  0  0  0  0  0  0  0
   -0.3414    0.5731    5.0237 H   0  0  0  0  0  0  0  0  0  0  0  0
    0.0809    2.5355    1.5934 C   0  0  0  0  0  0  0  0  0  0  0  0
    0.6042    3.0068    0.7388 H   0  0  0  0  0  0  0  0  0  0  0  0
   -1.0061    2.7032    1.4317 H   0  0  0  0  0  0  0  0  0  0  0  0
    2.6518    1.0952   -0.5852 C   0  0  0  0  0  0  0  0  0  0  0  0
    2.6340    1.8979    0.1857 H   0  0  0  0  0  0  0  0  0  0  0  0
    2.9400    0.1485   -0.0851 H   0  0  0  0  0  0  0  0  0  0  0  0
    0.8307    2.2185   -1.9580 C   0  0  0  0  0  0  0  0  0  0  0  0
    0.7108    3.0682   -1.2506 H   0  0  0  0  0  0  0  0  0  0  0  0
   -0.1507    2.0807   -2.4555 H   0  0  0  0  0  0  0  0  0  0  0  0
    0.5114    3.2148    2.9033 C   0  0  0  0  0  0  0  0  0  0  0  0
    0.2671    4.2968    2.8609 H   0  0  0  0  0  0  0  0  0  0  0  0
    1.6190    3.1451    2.9972 H   0  0  0  0  0  0  0  0  0  0  0  0
    3.2838    2.7280   -2.4123 C   0  0  0  0  0  0  0  0  0  0  0  0
    3.2918    3.5916   -1.7082 H   0  0  0  0  0  0  0  0  0  0  0  0
    4.0237    2.9633   -3.2055 H   0  0  0  0  0  0  0  0  0  0  0  0
    1.8826    2.5867   -3.0190 C   0  0  0  0  0  0  0  0  0  0  0  0
    1.9010    1.7888   -3.7948 H   0  0  0  0  0  0  0  0  0  0  0  0
    1.5822    3.5229   -3.5347 H   0  0  0  0  0  0  0  0  0  0  0  0
    3.6880    1.4561   -1.6577 C   0  0  0  0  0  0  0  0  0  0  0  0
    4.6874    1.5800   -1.1910 H   0  0  0  0  0  0  0  0  0  0  0  0
    3.7706    0.6048   -2.3683 H   0  0  0  0  0  0  0  0  0  0  0  0
  1  2  1  0  0  0  0
  1  5  1  0  0  0  0
  3  1  1  0  0  0  0
  4  1  1  0  0  0  0
  5  6  1  0  0  0  0
  5 16  1  0  0  0  0
  5  7  1  0  0  0  0
  7  9  1  0  0  0  0
  7  8  1  0  0  0  0
  9 10  1  0  0  0  0
 11  9  1  0  0  0  0
 12  9  1  0  0  0  0
 13 14  1  0  0  0  0
 13 15  1  0  0  0  0
 13  7  1  0  0  0  0
 16 13  1  0  0  0  0
 16 17  1  0  0  0  0
 16 18  1  0  0  0  0
 20 19  1  0  0  0  0
 21 20  1  0  0  0  0
 22 20  1  0  0  0  0
 23 22  1  0  0  0  0
 24 22  1  0  0  0  0
 25 26  1  0  0  0  0
 27 25  1  0  0  0  0
 28 29  1  0  0  0  0
 30 28  1  0  0  0  0
 31 19  1  0  0  0  0
 32 31  1  0  0  0  0
 33 19  1  0  0  0  0
 34 33  1  0  0  0  0
 35 20  1  0  0  0  0
 36 35  1  0  0  0  0
 37 35  1  0  0  0  0
 38 39  1  0  0  0  0
 40 38  1  0  0  0  0
 41 28  1  0  0  0  0
 42 41  1  0  0  0  0
 43 41  1  0  0  0  0
 44 22  1  0  0  0  0
 45 44  1  0  0  0  0
 46 44  1  0  0  0  0
 47 25  1  0  0  0  0
 48 47  1  0  0  0  0
 49 47  1  0  0  0  0
 50 33  1  0  0  0  0
 51 50  1  0  0  0  0
 52 50  1  0  0  0  0
 53 31  1  0  0  0  0
 54 53  1  0  0  0  0
 55 53  1  0  0  0  0
 56 31  1  0  0  0  0
 57 56  1  0  0  0  0
 58 56  1  0  0  0  0
 59 38  1  0  0  0  0
 60 59  1  0  0  0  0
 61 59  1  0  0  0  0
 62 63  1  0  0  0  0
 64 62  1  0  0  0  0
 65 56  1  0  0  0  0
 66 65  1  0  0  0  0
 67 65  1  0  0  0  0
 68 53  1  0  0  0  0
 69 68  1  0  0  0  0
 70 68  1  0  0  0  0
 25 33  1  0  0  0  0
 28 44  1  0  0  0  0
 35 41  1  0  0  0  0
 38 47  1  0  0  0  0
 50 59  1  0  0  0  0
 62 65  1  0  0  0  0
 62 68  1  0  0  0  0
 16 19  1  0  0  0  0
M  END
>  <DFT-ENERGY>
-2257.21505579

$$$$
