
  CDK     08152405193D

 79 82  0  0  0  0  0  0  0  0999 V2000
   -0.0033    0.0173    1.8954 Ru  0  0  0  0  0  0  0  0  0  0  0  0
    0.2307    1.3568    3.3051 C   0  0  0  0  0  0  0  0  0  0  0  0
   -0.5894    2.0907    3.3968 H   0  0  0  0  0  0  0  0  0  0  0  0
   -0.0087    0.0375    4.1458 C   0  0  0  0  0  0  0  0  0  0  0  0
   -0.9257    0.2078    4.7384 H   0  0  0  0  0  0  0  0  0  0  0  0
   -0.2453   -1.2964    3.3279 C   0  0  0  0  0  0  0  0  0  0  0  0
    0.5736   -2.0293    3.4365 H   0  0  0  0  0  0  0  0  0  0  0  0
   -1.2707   -1.6929    3.4349 H   0  0  0  0  0  0  0  0  0  0  0  0
    0.9060   -0.1221    4.7449 H   0  0  0  0  0  0  0  0  0  0  0  0
    1.2552    1.7560    3.4100 H   0  0  0  0  0  0  0  0  0  0  0  0
   -2.3414    0.4865    1.9511 Cl  0  0  0  0  0  0  0  0  0  0  0  0
    2.3344   -0.4503    1.9721 Cl  0  0  0  0  0  0  0  0  0  0  0  0
    0.0000   -0.0006   -0.0843 C   0  0  0  0  0  0  0  0  0  0  0  0
    0.0399   -1.1142   -0.8564 N   0  0  0  0  0  0  0  0  0  0  0  0
   -0.1798   -0.7671   -2.2774 C   0  0  0  0  0  0  0  0  0  0  0  0
    0.1815    0.7212   -2.2923 C   0  0  0  0  0  0  0  0  0  0  0  0
   -0.0389    1.0971   -0.8787 N   0  0  0  0  0  0  0  0  0  0  0  0
    0.4627   -1.3781   -2.9358 H   0  0  0  0  0  0  0  0  0  0  0  0
   -1.2434   -0.9408   -2.5491 H   0  0  0  0  0  0  0  0  0  0  0  0
   -0.4606    1.3189   -2.9631 H   0  0  0  0  0  0  0  0  0  0  0  0
    1.2452    0.8895   -2.5668 H   0  0  0  0  0  0  0  0  0  0  0  0
   -0.0353    2.4498   -0.3823 C   0  0  0  0  0  0  0  0  0  0  0  0
   -0.0700    5.0425    0.6463 C   0  0  0  0  0  0  0  0  0  0  0  0
   -1.2693    3.1498   -0.3271 C   0  0  0  0  0  0  0  0  0  0  0  0
    1.1889    3.0414    0.0260 C   0  0  0  0  0  0  0  0  0  0  0  0
    1.1391    4.3465    0.5509 C   0  0  0  0  0  0  0  0  0  0  0  0
   -1.2578    4.4532    0.1996 C   0  0  0  0  0  0  0  0  0  0  0  0
    2.0697    4.8251    0.8851 H   0  0  0  0  0  0  0  0  0  0  0  0
   -2.2007    5.0125    0.2667 H   0  0  0  0  0  0  0  0  0  0  0  0
    0.0370   -2.4561   -0.3310 C   0  0  0  0  0  0  0  0  0  0  0  0
    0.0734   -5.0236    0.7587 C   0  0  0  0  0  0  0  0  0  0  0  0
   -1.1875   -3.0408    0.0864 C   0  0  0  0  0  0  0  0  0  0  0  0
    1.2723   -3.1520   -0.2553 C   0  0  0  0  0  0  0  0  0  0  0  0
    1.2615   -4.4425    0.3023 C   0  0  0  0  0  0  0  0  0  0  0  0
   -1.1369   -4.3330    0.6421 C   0  0  0  0  0  0  0  0  0  0  0  0
    2.2054   -4.9980    0.3860 H   0  0  0  0  0  0  0  0  0  0  0  0
   -2.0677   -4.8055    0.9841 H   0  0  0  0  0  0  0  0  0  0  0  0
    2.5637   -2.5696   -0.8126 C   0  0  0  0  0  0  0  0  0  0  0  0
    2.4549   -1.4665   -0.8034 H   0  0  0  0  0  0  0  0  0  0  0  0
   -2.5315   -2.3603   -0.1360 C   0  0  0  0  0  0  0  0  0  0  0  0
   -2.3608   -1.2662   -0.1860 H   0  0  0  0  0  0  0  0  0  0  0  0
    2.5324    2.3531   -0.1747 C   0  0  0  0  0  0  0  0  0  0  0  0
    2.3594    1.2585   -0.2016 H   0  0  0  0  0  0  0  0  0  0  0  0
   -2.5604    2.5569   -0.8741 C   0  0  0  0  0  0  0  0  0  0  0  0
   -2.4520    1.4542   -0.8430 H   0  0  0  0  0  0  0  0  0  0  0  0
   -3.5314   -2.5979    1.0034 C   0  0  0  0  0  0  0  0  0  0  0  0
   -4.4338   -1.9758    0.8435 H   0  0  0  0  0  0  0  0  0  0  0  0
   -3.1030   -2.3056    1.9799 H   0  0  0  0  0  0  0  0  0  0  0  0
   -3.8612   -3.6566    1.0517 H   0  0  0  0  0  0  0  0  0  0  0  0
   -3.1345   -2.8360   -1.4739 C   0  0  0  0  0  0  0  0  0  0  0  0
   -2.4441   -2.6788   -2.3268 H   0  0  0  0  0  0  0  0  0  0  0  0
   -4.0799   -2.2970   -1.6893 H   0  0  0  0  0  0  0  0  0  0  0  0
   -3.3617   -3.9219   -1.4347 H   0  0  0  0  0  0  0  0  0  0  0  0
    3.8006   -2.9161    0.0274 C   0  0  0  0  0  0  0  0  0  0  0  0
    4.0535   -3.9951   -0.0358 H   0  0  0  0  0  0  0  0  0  0  0  0
    3.6461   -2.6403    1.0868 H   0  0  0  0  0  0  0  0  0  0  0  0
    4.6790   -2.3549   -0.3500 H   0  0  0  0  0  0  0  0  0  0  0  0
    2.7678   -3.0426   -2.2665 C   0  0  0  0  0  0  0  0  0  0  0  0
    2.9090   -4.1432   -2.3008 H   0  0  0  0  0  0  0  0  0  0  0  0
    3.6687   -2.5705   -2.7095 H   0  0  0  0  0  0  0  0  0  0  0  0
    1.9009   -2.8078   -2.9165 H   0  0  0  0  0  0  0  0  0  0  0  0
    3.1435    2.7978   -1.5194 C   0  0  0  0  0  0  0  0  0  0  0  0
    4.0890    2.2524   -1.7177 H   0  0  0  0  0  0  0  0  0  0  0  0
    3.3726    3.8839   -1.5032 H   0  0  0  0  0  0  0  0  0  0  0  0
    2.4575    2.6229   -2.3725 H   0  0  0  0  0  0  0  0  0  0  0  0
    3.5267    2.6132    0.9646 C   0  0  0  0  0  0  0  0  0  0  0  0
    3.8584    3.6720    0.9921 H   0  0  0  0  0  0  0  0  0  0  0  0
    4.4287    1.9861    0.8230 H   0  0  0  0  0  0  0  0  0  0  0  0
    3.0926    2.3426    1.9448 H   0  0  0  0  0  0  0  0  0  0  0  0
   -2.7636    3.0012   -2.3371 C   0  0  0  0  0  0  0  0  0  0  0  0
   -1.8966    2.7530   -2.9820 H   0  0  0  0  0  0  0  0  0  0  0  0
   -2.9042    4.1009   -2.3934 H   0  0  0  0  0  0  0  0  0  0  0  0
   -3.6646    2.5208   -2.7711 H   0  0  0  0  0  0  0  0  0  0  0  0
   -3.7975    2.9202   -0.0414 C   0  0  0  0  0  0  0  0  0  0  0  0
   -4.0497    3.9979   -0.1254 H   0  0  0  0  0  0  0  0  0  0  0  0
   -3.6435    2.6647    1.0232 H   0  0  0  0  0  0  0  0  0  0  0  0
   -4.6761    2.3522   -0.4082 H   0  0  0  0  0  0  0  0  0  0  0  0
   -0.0860    6.0595    1.0651 H   0  0  0  0  0  0  0  0  0  0  0  0
    0.0901   -6.0303    1.2019 H   0  0  0  0  0  0  0  0  0  0  0  0
  2  4  1  0  0  0  0
  2  1  1  0  0  0  0
  2  3  1  0  0  0  0
  4  6  1  0  0  0  0
  4  5  1  0  0  0  0
  6  1  1  0  0  0  0
  6  8  1  0  0  0  0
  7  6  1  0  0  0  0
  9  4  1  0  0  0  0
 10  2  1  0  0  0  0
  1 11  1  0  0  0  0
  1 12  1  0  0  0  0
 13 14  1  0  0  0  0
 13 17  1  0  0  0  0
 14 15  1  0  0  0  0
 15 18  1  0  0  0  0
 15 19  1  0  0  0  0
 15 16  1  0  0  0  0
 16 20  1  0  0  0  0
 16 21  1  0  0  0  0
 16 17  1  0  0  0  0
 22 25  2  0  0  0  0
 25 26  1  0  0  0  0
 23 26  2  0  0  0  0
 23 27  1  0  0  0  0
 24 27  2  0  0  0  0
 22 24  1  0  0  0  0
 26 28  1  0  0  0  0
 27 29  1  0  0  0  0
 17 22  1  0  0  0  0
 30 33  2  0  0  0  0
 33 34  1  0  0  0  0
 31 34  2  0  0  0  0
 31 35  1  0  0  0  0
 32 35  2  0  0  0  0
 30 32  1  0  0  0  0
 34 36  1  0  0  0  0
 35 37  1  0  0  0  0
 14 30  1  0  0  0  0
 38 39  1  0  0  0  0
 33 38  1  0  0  0  0
 40 41  1  0  0  0  0
 32 40  1  0  0  0  0
 42 43  1  0  0  0  0
 25 42  1  0  0  0  0
 44 45  1  0  0  0  0
 24 44  1  0  0  0  0
 46 47  1  0  0  0  0
 46 48  1  0  0  0  0
 46 49  1  0  0  0  0
 40 46  1  0  0  0  0
 50 51  1  0  0  0  0
 50 52  1  0  0  0  0
 50 53  1  0  0  0  0
 40 50  1  0  0  0  0
 54 55  1  0  0  0  0
 54 56  1  0  0  0  0
 54 57  1  0  0  0  0
 38 54  1  0  0  0  0
 58 59  1  0  0  0  0
 58 60  1  0  0  0  0
 58 61  1  0  0  0  0
 38 58  1  0  0  0  0
 62 63  1  0  0  0  0
 62 64  1  0  0  0  0
 62 65  1  0  0  0  0
 42 62  1  0  0  0  0
 66 67  1  0  0  0  0
 66 68  1  0  0  0  0
 66 69  1  0  0  0  0
 42 66  1  0  0  0  0
 70 71  1  0  0  0  0
 70 72  1  0  0  0  0
 70 73  1  0  0  0  0
 44 70  1  0  0  0  0
 74 75  1  0  0  0  0
 74 76  1  0  0  0  0
 74 77  1  0  0  0  0
 44 74  1  0  0  0  0
 23 78  1  0  0  0  0
 31 79  1  0  0  0  0
  1 13  1  0  0  0  0
M  END
>  <DFT-ENERGY>
-2292.46272878

$$$$
