
  CDK     08142421073D

 79 83  0  0  0  0  0  0  0  0999 V2000
   -1.2468    3.1405   -1.3702 H   0  0  0  0  0  0  0  0  0  0  0  0
   -2.4501    3.0465   -1.6093 C   0  0  0  0  0  0  0  0  0  0  0  0
   -2.4704    4.1204   -1.8911 H   0  0  0  0  0  0  0  0  0  0  0  0
   -2.9357    2.5424   -0.2918 C   0  0  0  0  0  0  0  0  0  0  0  0
   -3.8415    1.9159   -0.2826 H   0  0  0  0  0  0  0  0  0  0  0  0
   -2.8106    3.2220    0.5680 H   0  0  0  0  0  0  0  0  0  0  0  0
   -1.2538    1.4511   -0.8300 Ru  0  0  0  0  0  0  0  0  0  0  0  0
   -2.3385    1.9491   -2.5924 C   0  0  0  0  0  0  0  0  0  0  0  0
   -3.1905    1.2717   -2.7326 H   0  0  0  0  0  0  0  0  0  0  0  0
   -1.7148    2.1329   -3.4844 H   0  0  0  0  0  0  0  0  0  0  0  0
   -2.7586   -0.4542   -1.0014 Cl  0  0  0  0  0  0  0  0  0  0  0  0
    0.1416    2.9033    0.4409 Cl  0  0  0  0  0  0  0  0  0  0  0  0
   -0.2071   -0.0793    0.0485 C   0  0  0  0  0  0  0  0  0  0  0  0
    0.0859   -0.4374    1.3184 N   0  0  0  0  0  0  0  0  0  0  0  0
    0.7866   -1.7431    1.3444 C   0  0  0  0  0  0  0  0  0  0  0  0
    1.3086   -1.8710   -0.0911 C   0  0  0  0  0  0  0  0  0  0  0  0
    0.4256   -0.9280   -0.8038 N   0  0  0  0  0  0  0  0  0  0  0  0
    1.5881   -1.7452    2.1032 H   0  0  0  0  0  0  0  0  0  0  0  0
    0.0533   -2.5392    1.5976 H   0  0  0  0  0  0  0  0  0  0  0  0
    1.2101   -2.8945   -0.4954 H   0  0  0  0  0  0  0  0  0  0  0  0
    2.3684   -1.5495   -0.1872 H   0  0  0  0  0  0  0  0  0  0  0  0
    0.4466   -0.6595   -2.2178 C   0  0  0  0  0  0  0  0  0  0  0  0
    0.2952   -0.0186   -4.9296 C   0  0  0  0  0  0  0  0  0  0  0  0
   -0.2681   -1.5227   -3.0889 C   0  0  0  0  0  0  0  0  0  0  0  0
    1.1644    0.4739   -2.6967 C   0  0  0  0  0  0  0  0  0  0  0  0
    1.0480    0.7835   -4.0672 C   0  0  0  0  0  0  0  0  0  0  0  0
   -0.3316   -1.1745   -4.4481 C   0  0  0  0  0  0  0  0  0  0  0  0
    1.5759    1.6610   -4.4640 H   0  0  0  0  0  0  0  0  0  0  0  0
   -0.8957   -1.8149   -5.1401 H   0  0  0  0  0  0  0  0  0  0  0  0
   -0.2427    0.2509    2.5388 C   0  0  0  0  0  0  0  0  0  0  0  0
   -0.8167    1.5549    4.9397 C   0  0  0  0  0  0  0  0  0  0  0  0
   -1.5417    0.1351    3.0864 C   0  0  0  0  0  0  0  0  0  0  0  0
    0.7881    0.9791    3.1900 C   0  0  0  0  0  0  0  0  0  0  0  0
    0.4712    1.6259    4.3966 C   0  0  0  0  0  0  0  0  0  0  0  0
   -1.8077    0.8119    4.2920 C   0  0  0  0  0  0  0  0  0  0  0  0
    1.2485    2.2042    4.9157 H   0  0  0  0  0  0  0  0  0  0  0  0
   -2.8127    0.7434    4.7320 H   0  0  0  0  0  0  0  0  0  0  0  0
    2.2167    1.0323    2.6612 C   0  0  0  0  0  0  0  0  0  0  0  0
    2.1971    0.6735    1.6117 H   0  0  0  0  0  0  0  0  0  0  0  0
   -2.6085   -0.7444    2.4570 C   0  0  0  0  0  0  0  0  0  0  0  0
   -2.3034   -0.9700    1.4179 H   0  0  0  0  0  0  0  0  0  0  0  0
    2.1674    1.2336   -1.8337 C   0  0  0  0  0  0  0  0  0  0  0  0
    1.8283    1.2000   -0.7799 H   0  0  0  0  0  0  0  0  0  0  0  0
   -0.8973   -2.8173   -2.5957 C   0  0  0  0  0  0  0  0  0  0  0  0
   -1.0497   -2.7054   -1.5035 H   0  0  0  0  0  0  0  0  0  0  0  0
   -3.9715   -0.0452    2.3664 C   0  0  0  0  0  0  0  0  0  0  0  0
   -4.6748   -0.6648    1.7757 H   0  0  0  0  0  0  0  0  0  0  0  0
   -3.8770    0.9334    1.8591 H   0  0  0  0  0  0  0  0  0  0  0  0
   -4.4245    0.1210    3.3663 H   0  0  0  0  0  0  0  0  0  0  0  0
   -2.7197   -2.0727    3.2286 C   0  0  0  0  0  0  0  0  0  0  0  0
   -1.7480   -2.6068    3.2686 H   0  0  0  0  0  0  0  0  0  0  0  0
   -3.4603   -2.7423    2.7448 H   0  0  0  0  0  0  0  0  0  0  0  0
   -3.0457   -1.9026    4.2765 H   0  0  0  0  0  0  0  0  0  0  0  0
    2.8050    2.4519    2.6454 C   0  0  0  0  0  0  0  0  0  0  0  0
    2.9303    2.8536    3.6720 H   0  0  0  0  0  0  0  0  0  0  0  0
    2.1604    3.1427    2.0718 H   0  0  0  0  0  0  0  0  0  0  0  0
    3.8100    2.4390    2.1757 H   0  0  0  0  0  0  0  0  0  0  0  0
    3.1284    0.1020    3.4873 C   0  0  0  0  0  0  0  0  0  0  0  0
    3.2115    0.4682    4.5317 H   0  0  0  0  0  0  0  0  0  0  0  0
    4.1511    0.0690    3.0581 H   0  0  0  0  0  0  0  0  0  0  0  0
    2.7423   -0.9362    3.5413 H   0  0  0  0  0  0  0  0  0  0  0  0
    3.5427    0.5404   -1.9267 C   0  0  0  0  0  0  0  0  0  0  0  0
    4.2735    1.0357   -1.2547 H   0  0  0  0  0  0  0  0  0  0  0  0
    3.9384    0.5923   -2.9625 H   0  0  0  0  0  0  0  0  0  0  0  0
    3.4901   -0.5315   -1.6502 H   0  0  0  0  0  0  0  0  0  0  0  0
    2.3020    2.7152   -2.2064 C   0  0  0  0  0  0  0  0  0  0  0  0
    2.7941    2.8516   -3.1918 H   0  0  0  0  0  0  0  0  0  0  0  0
    2.9216    3.2364   -1.4509 H   0  0  0  0  0  0  0  0  0  0  0  0
    1.3148    3.2140   -2.2251 H   0  0  0  0  0  0  0  0  0  0  0  0
    0.0646   -3.9937   -2.8600 C   0  0  0  0  0  0  0  0  0  0  0  0
    1.0694   -3.8238   -2.4221 H   0  0  0  0  0  0  0  0  0  0  0  0
    0.2082   -4.1427   -3.9506 H   0  0  0  0  0  0  0  0  0  0  0  0
   -0.3427   -4.9362   -2.4396 H   0  0  0  0  0  0  0  0  0  0  0  0
   -2.2700   -3.1035   -3.2196 C   0  0  0  0  0  0  0  0  0  0  0  0
   -2.1937   -3.3204   -4.3055 H   0  0  0  0  0  0  0  0  0  0  0  0
   -2.9528   -2.2464   -3.0707 H   0  0  0  0  0  0  0  0  0  0  0  0
   -2.7221   -3.9963   -2.7422 H   0  0  0  0  0  0  0  0  0  0  0  0
    0.2142    0.2462   -5.9943 H   0  0  0  0  0  0  0  0  0  0  0  0
   -1.0457    2.0772    5.8802 H   0  0  0  0  0  0  0  0  0  0  0  0
  1  2  1  0  0  0  0
  1  7  1  0  0  0  0
  2  3  1  0  0  0  0
  2  4  1  0  0  0  0
  4  5  1  0  0  0  0
  6  4  1  0  0  0  0
  7  8  1  0  0  0  0
  7  4  1  0  0  0  0
  8  2  1  0  0  0  0
  8  9  1  0  0  0  0
 10  8  1  0  0  0  0
  7 11  1  0  0  0  0
  7 12  1  0  0  0  0
 13 14  1  0  0  0  0
 13 17  1  0  0  0  0
 14 15  1  0  0  0  0
 15 18  1  0  0  0  0
 15 19  1  0  0  0  0
 15 16  1  0  0  0  0
 16 20  1  0  0  0  0
 16 21  1  0  0  0  0
 16 17  1  0  0  0  0
 22 25  2  0  0  0  0
 25 26  1  0  0  0  0
 23 26  2  0  0  0  0
 23 27  1  0  0  0  0
 24 27  2  0  0  0  0
 22 24  1  0  0  0  0
 26 28  1  0  0  0  0
 27 29  1  0  0  0  0
 17 22  1  0  0  0  0
 30 33  2  0  0  0  0
 33 34  1  0  0  0  0
 31 34  2  0  0  0  0
 31 35  1  0  0  0  0
 32 35  2  0  0  0  0
 30 32  1  0  0  0  0
 34 36  1  0  0  0  0
 35 37  1  0  0  0  0
 14 30  1  0  0  0  0
 38 39  1  0  0  0  0
 33 38  1  0  0  0  0
 40 41  1  0  0  0  0
 32 40  1  0  0  0  0
 42 43  1  0  0  0  0
 25 42  1  0  0  0  0
 44 45  1  0  0  0  0
 24 44  1  0  0  0  0
 46 47  1  0  0  0  0
 46 48  1  0  0  0  0
 46 49  1  0  0  0  0
 40 46  1  0  0  0  0
 50 51  1  0  0  0  0
 50 52  1  0  0  0  0
 50 53  1  0  0  0  0
 40 50  1  0  0  0  0
 54 55  1  0  0  0  0
 54 56  1  0  0  0  0
 54 57  1  0  0  0  0
 38 54  1  0  0  0  0
 58 59  1  0  0  0  0
 58 60  1  0  0  0  0
 58 61  1  0  0  0  0
 38 58  1  0  0  0  0
 62 63  1  0  0  0  0
 62 64  1  0  0  0  0
 62 65  1  0  0  0  0
 42 62  1  0  0  0  0
 66 67  1  0  0  0  0
 66 68  1  0  0  0  0
 66 69  1  0  0  0  0
 42 66  1  0  0  0  0
 70 71  1  0  0  0  0
 70 72  1  0  0  0  0
 70 73  1  0  0  0  0
 44 70  1  0  0  0  0
 74 75  1  0  0  0  0
 74 76  1  0  0  0  0
 74 77  1  0  0  0  0
 44 74  1  0  0  0  0
 23 78  1  0  0  0  0
 31 79  1  0  0  0  0
  7 13  1  0  0  0  0
M  END
>  <DFT-ENERGY>
-2292.41906452

$$$$
