DIPP-4_A2
  CDK     08122412103D

 93 97  0  0  0  0  0  0  0  0999 V2000
    0.9852   -0.0543   -0.8325 Ru  0  0  0  0  0  0  0  0  0  0  0  0
    2.7630   -0.0543   -2.2217 O   0  0  0  0  0  0  0  0  0  0  0  0
    2.1954    0.8790    0.1716 C   0  0  0  0  0  0  0  0  0  0  0  0
    1.9626    1.1719    1.1943 H   0  0  0  0  0  0  0  0  0  0  0  0
    2.9985   -0.8295   -3.4475 C   0  0  0  0  0  0  0  0  0  0  0  0
    3.4063   -0.1291   -4.2066 H   0  0  0  0  0  0  0  0  0  0  0  0
    1.5764   -1.2722   -3.7616 C   0  0  0  0  0  0  0  0  0  0  0  0
    1.5055   -1.7759   -4.7287 H   0  0  0  0  0  0  0  0  0  0  0  0
    1.1907   -1.9668   -2.9865 H   0  0  0  0  0  0  0  0  0  0  0  0
    0.8883   -0.4019   -3.7711 H   0  0  0  0  0  0  0  0  0  0  0  0
    3.9381   -1.9747   -3.1157 C   0  0  0  0  0  0  0  0  0  0  0  0
    3.9399   -2.7404   -3.8979 H   0  0  0  0  0  0  0  0  0  0  0  0
    4.9697   -1.6438   -2.9567 H   0  0  0  0  0  0  0  0  0  0  0  0
    3.6145   -2.4667   -2.1768 H   0  0  0  0  0  0  0  0  0  0  0  0
    3.7552    0.7441   -1.7167 C   0  0  0  0  0  0  0  0  0  0  0  0
    4.9243    1.0929   -2.3697 C   0  0  0  0  0  0  0  0  0  0  0  0
    5.1435    0.7424   -3.3755 H   0  0  0  0  0  0  0  0  0  0  0  0
    5.8255    1.9239   -1.7122 C   0  0  0  0  0  0  0  0  0  0  0  0
    6.7481    2.2113   -2.2209 H   0  0  0  0  0  0  0  0  0  0  0  0
    5.5755    2.3955   -0.4269 C   0  0  0  0  0  0  0  0  0  0  0  0
    6.3004    3.0399    0.0676 H   0  0  0  0  0  0  0  0  0  0  0  0
    4.4058    2.0352    0.2147 C   0  0  0  0  0  0  0  0  0  0  0  0
    4.2126    2.3898    1.2260 H   0  0  0  0  0  0  0  0  0  0  0  0
    3.4703    1.2198   -0.4247 C   0  0  0  0  0  0  0  0  0  0  0  0
    1.5840   -2.2432   -0.2730 Cl  0  0  0  0  0  0  0  0  0  0  0  0
    0.1646    1.6465   -2.1876 Cl  0  0  0  0  0  0  0  0  0  0  0  0
   -0.6313   -0.0233    0.3042 C   0  0  0  0  0  0  0  0  0  0  0  0
   -0.9492    0.6603    1.4783 N   0  0  0  0  0  0  0  0  0  0  0  0
   -2.3835    0.4918    1.9152 C   0  0  0  0  0  0  0  0  0  0  0  0
   -2.9576   -0.4785    0.8739 C   0  0  0  0  0  0  0  0  0  0  0  0
   -1.7992   -0.7075   -0.0596 N   0  0  0  0  0  0  0  0  0  0  0  0
   -2.4279    0.0913    2.9478 H   0  0  0  0  0  0  0  0  0  0  0  0
   -2.8945    1.4764    1.9108 H   0  0  0  0  0  0  0  0  0  0  0  0
   -3.8212   -0.0522    0.3099 H   0  0  0  0  0  0  0  0  0  0  0  0
   -3.2833   -1.4508    1.3166 H   0  0  0  0  0  0  0  0  0  0  0  0
   -2.0554   -1.5858   -1.1821 C   0  0  0  0  0  0  0  0  0  0  0  0
   -2.6917   -3.2893   -3.3039 C   0  0  0  0  0  0  0  0  0  0  0  0
   -2.6189   -1.0464   -2.3650 C   0  0  0  0  0  0  0  0  0  0  0  0
   -1.8712   -2.9831   -1.0324 C   0  0  0  0  0  0  0  0  0  0  0  0
   -2.1869   -3.8163   -2.1155 C   0  0  0  0  0  0  0  0  0  0  0  0
   -2.9173   -1.9182   -3.4218 C   0  0  0  0  0  0  0  0  0  0  0  0
   -2.0435   -4.8932   -2.0245 H   0  0  0  0  0  0  0  0  0  0  0  0
   -3.3412   -1.5187   -4.3431 H   0  0  0  0  0  0  0  0  0  0  0  0
   -0.1347    1.4938    2.3335 C   0  0  0  0  0  0  0  0  0  0  0  0
    1.2825    3.1340    4.0929 C   0  0  0  0  0  0  0  0  0  0  0  0
   -0.0148    2.8741    2.0511 C   0  0  0  0  0  0  0  0  0  0  0  0
    0.4641    0.9249    3.4849 C   0  0  0  0  0  0  0  0  0  0  0  0
    1.1770    1.7656    4.3494 C   0  0  0  0  0  0  0  0  0  0  0  0
    0.6955    3.6811    2.9531 C   0  0  0  0  0  0  0  0  0  0  0  0
    1.6585    1.3457    5.2325 H   0  0  0  0  0  0  0  0  0  0  0  0
    0.7917    4.7481    2.7526 H   0  0  0  0  0  0  0  0  0  0  0  0
    0.3946   -0.5674    3.7638 C   0  0  0  0  0  0  0  0  0  0  0  0
   -0.4891   -1.0081    3.2324 H   0  0  0  0  0  0  0  0  0  0  0  0
   -0.6027    3.4965    0.7961 C   0  0  0  0  0  0  0  0  0  0  0  0
   -1.0919    2.7013    0.1683 H   0  0  0  0  0  0  0  0  0  0  0  0
   -1.4101   -3.5956    0.2806 C   0  0  0  0  0  0  0  0  0  0  0  0
   -0.7870   -2.8396    0.8334 H   0  0  0  0  0  0  0  0  0  0  0  0
   -2.9731    0.4270   -2.4854 C   0  0  0  0  0  0  0  0  0  0  0  0
   -2.3448    1.0173   -1.7628 H   0  0  0  0  0  0  0  0  0  0  0  0
    0.5144    4.1007   -0.0628 C   0  0  0  0  0  0  0  0  0  0  0  0
    0.1211    4.4359   -1.0315 H   0  0  0  0  0  0  0  0  0  0  0  0
    1.2768    3.3387   -0.2992 H   0  0  0  0  0  0  0  0  0  0  0  0
    1.0116    4.9471    0.4152 H   0  0  0  0  0  0  0  0  0  0  0  0
   -1.6673    4.5379    1.1632 C   0  0  0  0  0  0  0  0  0  0  0  0
   -2.4472    4.1077    1.7989 H   0  0  0  0  0  0  0  0  0  0  0  0
   -2.1491    4.9320    0.2607 H   0  0  0  0  0  0  0  0  0  0  0  0
   -1.2380    5.3916    1.6987 H   0  0  0  0  0  0  0  0  0  0  0  0
    1.6552   -1.2310    3.1984 C   0  0  0  0  0  0  0  0  0  0  0  0
    2.5705   -0.8430    3.6548 H   0  0  0  0  0  0  0  0  0  0  0  0
    1.7340   -1.0691    2.1071 H   0  0  0  0  0  0  0  0  0  0  0  0
    1.6413   -2.3161    3.3490 H   0  0  0  0  0  0  0  0  0  0  0  0
    0.2189   -0.8713    5.2570 C   0  0  0  0  0  0  0  0  0  0  0  0
    1.1108   -0.6095    5.8379 H   0  0  0  0  0  0  0  0  0  0  0  0
    0.0382   -1.9405    5.4163 H   0  0  0  0  0  0  0  0  0  0  0  0
   -0.6267   -0.3212    5.6823 H   0  0  0  0  0  0  0  0  0  0  0  0
   -2.6447   -3.9382    1.1308 C   0  0  0  0  0  0  0  0  0  0  0  0
   -2.3498   -4.4025    2.0778 H   0  0  0  0  0  0  0  0  0  0  0  0
   -3.3082   -4.6396    0.6133 H   0  0  0  0  0  0  0  0  0  0  0  0
   -3.2296   -3.0362    1.3661 H   0  0  0  0  0  0  0  0  0  0  0  0
   -0.5344   -4.8371    0.0776 C   0  0  0  0  0  0  0  0  0  0  0  0
   -1.0935   -5.6883   -0.3202 H   0  0  0  0  0  0  0  0  0  0  0  0
   -0.0781   -5.1490    1.0238 H   0  0  0  0  0  0  0  0  0  0  0  0
    0.2947   -4.6195   -0.6121 H   0  0  0  0  0  0  0  0  0  0  0  0
   -4.4516    0.6138   -2.1083 C   0  0  0  0  0  0  0  0  0  0  0  0
   -4.6344    0.3089   -1.0672 H   0  0  0  0  0  0  0  0  0  0  0  0
   -5.1117    0.0215   -2.7511 H   0  0  0  0  0  0  0  0  0  0  0  0
   -4.7504    1.6629   -2.2078 H   0  0  0  0  0  0  0  0  0  0  0  0
   -2.6853    0.9847   -3.8832 C   0  0  0  0  0  0  0  0  0  0  0  0
   -3.3229    0.5457   -4.6549 H   0  0  0  0  0  0  0  0  0  0  0  0
   -1.6353    0.8093   -4.1596 H   0  0  0  0  0  0  0  0  0  0  0  0
   -2.8323    2.0711   -3.9045 H   0  0  0  0  0  0  0  0  0  0  0  0
   -2.9249   -3.9521   -4.1363 H   0  0  0  0  0  0  0  0  0  0  0  0
    1.8307    3.7742    4.7831 H   0  0  0  0  0  0  0  0  0  0  0  0
  2  1  1  0  0  0  0
  3  1  2  0  0  0  0
  4  3  1  0  0  0  0
  5  2  1  0  0  0  0
  6  5  1  0  0  0  0
  7  5  1  0  0  0  0
  8  7  1  0  0  0  0
  9  7  1  0  0  0  0
 10  7  1  0  0  0  0
 11  5  1  0  0  0  0
 12 11  1  0  0  0  0
 13 11  1  0  0  0  0
 14 11  1  0  0  0  0
 15  2  1  0  0  0  0
 15 24  1  0  0  0  0
 16 15  2  0  0  0  0
 17 16  1  0  0  0  0
 18 16  1  0  0  0  0
 19 18  1  0  0  0  0
 20 18  2  0  0  0  0
 21 20  1  0  0  0  0
 22 20  1  0  0  0  0
 22 24  2  0  0  0  0
 23 22  1  0  0  0  0
 24  3  1  0  0  0  0
  1 25  1  0  0  0  0
  1 26  1  0  0  0  0
 27 28  1  0  0  0  0
 27 31  1  0  0  0  0
 28 29  1  0  0  0  0
 29 32  1  0  0  0  0
 29 33  1  0  0  0  0
 29 30  1  0  0  0  0
 30 34  1  0  0  0  0
 30 35  1  0  0  0  0
 30 31  1  0  0  0  0
 36 39  2  0  0  0  0
 39 40  1  0  0  0  0
 37 40  2  0  0  0  0
 37 41  1  0  0  0  0
 38 41  2  0  0  0  0
 36 38  1  0  0  0  0
 40 42  1  0  0  0  0
 41 43  1  0  0  0  0
 31 36  1  0  0  0  0
 44 47  2  0  0  0  0
 47 48  1  0  0  0  0
 45 48  2  0  0  0  0
 45 49  1  0  0  0  0
 46 49  2  0  0  0  0
 44 46  1  0  0  0  0
 48 50  1  0  0  0  0
 49 51  1  0  0  0  0
 28 44  1  0  0  0  0
 52 53  1  0  0  0  0
 47 52  1  0  0  0  0
 54 55  1  0  0  0  0
 46 54  1  0  0  0  0
 56 57  1  0  0  0  0
 39 56  1  0  0  0  0
 58 59  1  0  0  0  0
 38 58  1  0  0  0  0
 60 61  1  0  0  0  0
 60 62  1  0  0  0  0
 60 63  1  0  0  0  0
 54 60  1  0  0  0  0
 64 65  1  0  0  0  0
 64 66  1  0  0  0  0
 64 67  1  0  0  0  0
 54 64  1  0  0  0  0
 68 69  1  0  0  0  0
 68 70  1  0  0  0  0
 68 71  1  0  0  0  0
 52 68  1  0  0  0  0
 72 73  1  0  0  0  0
 72 74  1  0  0  0  0
 72 75  1  0  0  0  0
 52 72  1  0  0  0  0
 76 77  1  0  0  0  0
 76 78  1  0  0  0  0
 76 79  1  0  0  0  0
 56 76  1  0  0  0  0
 80 81  1  0  0  0  0
 80 82  1  0  0  0  0
 80 83  1  0  0  0  0
 56 80  1  0  0  0  0
 84 85  1  0  0  0  0
 84 86  1  0  0  0  0
 84 87  1  0  0  0  0
 58 84  1  0  0  0  0
 88 89  1  0  0  0  0
 88 90  1  0  0  0  0
 88 91  1  0  0  0  0
 58 88  1  0  0  0  0
 37 92  1  0  0  0  0
 45 93  1  0  0  0  0
  1 27  1  0  0  0  0
M  END
> <FrozenCore-PM6_ENERGY>
-34.575

> <RMSD_CONF_CG-CS>
0.387248

> <RMSD_CONF_GO-CS>
0.000000

> <UID>


> <DESCRIPTOR_DEFINITION_1>
desc1=( echo "1 * ( e( $hartree_to_kcalmol * ( ( $freeEnergyZ - $freeEnergyD ) - ( $freeEnergyX + 2*$G_Ethene - $freeEnergyD - 2*$G_Propene ) - $DDG_reference_HGII ) / $kT ) ) " | bc -l )

> <DESCRIPTOR_DEFINITION_2>
desc1=( echo "1 * ( e( $hartree_to_kcalmol * ( ( $freeEnergyZ - $freeEnergyD ) - ( $freeEnergyX + 2*$G_Ethene - $freeEnergyD - 2*$G_Propene ) - $DDG_reference_HGII ) / $kT ) ) " | bc -l )

> <DESCRIPTOR_DEFINITION_3>
desc1=( echo "1 * ( e( $hartree_to_kcalmol * ( ( $freeEnergyZ - $freeEnergyD ) - ( $freeEnergyX + 2*$G_Ethene - $freeEnergyD - 2*$G_Propene ) - $DDG_reference_HGII ) / $kT ) ) " | bc -l )

> <WEIGHT_DEFINITION_1>
w1=$( echo "1 / ( 1 + e( $hartree_to_kcalmol * ( ( ( $freeEnergyX + 2*$G_Ethene - $freeEnergyD - 2*$G_Propene ) ) - ( $DG_referenceProductionBarrier + $magnitude4 ) ) / $kT ) )" | bc -l )

> <WEIGHT_DEFINITION_2>
w1=$( echo "1 / ( 1 + e( $hartree_to_kcalmol * ( ( ( $freeEnergyX + 2*$G_Ethene - $freeEnergyD - 2*$G_Propene ) ) - ( $DG_referenceProductionBarrier + $magnitude4 ) ) / $kT ) )" | bc -l )

> <WEIGHT_DEFINITION_3>
w1=$( echo "1 / ( 1 + e( $hartree_to_kcalmol * ( ( ( $freeEnergyX + 2*$G_Ethene - $freeEnergyD - 2*$G_Propene ) ) - ( $DG_referenceProductionBarrier + $magnitude4 ) ) / $kT ) )" | bc -l )

> <WEIGHT_DEFINITION_4>
w1=$( echo "1 / ( 1 + e( $hartree_to_kcalmol * ( ( ( $freeEnergyX + 2*$G_Ethene - $freeEnergyD - 2*$G_Propene ) ) - ( $DG_referenceProductionBarrier + $magnitude4 ) ) / $kT ) )" | bc -l )

> <CALCULATION_OF_OVERALL_FITNESS>
fitness=$( echo "( $desc1 + $desc2 + $desc3 ) * ( $w1 * $w2 * $w3 * $w4 )" | bc -l )

> <freeEnergyA>
-2637.69351946

> <freeEnergyF>
-2637.67045722

> <freeEnergyE>
-2637.69351946

> <freeEnergyC>
-2292.43656309

> <freeEnergyL>
-1159.83066333

> <freeEnergyX>
-2370.97341095

> <freeEnergyZ>
-2292.41906393

> <freeEnergyD>
-2292.46272869

> <G_Propene>
-117.738020895

> <G_Ethene>
-78.4716324751

> <G_HoveydaProd>
-502.204109499

> <G_SIMes>
-924.27249048

> <G_HG_RuCl2_SIMes>
-2402.13728523

> <DG_referenceProductionBarrier>
0.01468968

> <DG_referencePrecursorStabilityHII>
-0.0052201621

> <DG_referencePrecursorStabilityHI>
0.0117775312

> <DDG_referencePrecursorStability>
.0169976933

> <DG_referenceSynt>
0.0226072217

> <hartree_to_kcalmol>
627.49467516

> <boltzmann_constant>
0.0000000000000000000000138066

> <avogadro_number>
602214000000000000000000

> <jmol_to_kcalmol>
0.00023901

> <temp>
313.15

> <kT>
.6223089948281258706000000000

> <magnitude1>
1.43290809

> <magnitude2>
2.86581618

> <magnitude3>
4.29872427

> <magnitude4>
5.73163236

> <DFT_IDENTIFIER>
1723695151020

> <DFT_MACHINE>
158.39.114.73

> <XTB_IDENTIFIER>
NREC

> <XTB_MACHINE>
NREC

> <DESCRIPTOR_1>
.51344055303999178796

> <DESCRIPTOR_2>
13.535173217741663832

> <DESCRIPTOR_3>
.110969295828670200

> <WEIGHT_1>
.99991633333220628598

> <WEIGHT_2>
.99999998620305648441

> <WEIGHT_3>
.99999999991109010345

> <WEIGHT_4>
.99999999204355148567

> <FITNESS>
14.15839807222578357328

$$$$
