
  CDK     08172404393D

 61 65  0  0  0  0  0  0  0  0999 V2000
    0.3665   -0.3038   -3.3727 H   0  0  0  0  0  0  0  0  0  0  0  0
    1.5887   -0.1619   -3.3815 C   0  0  0  0  0  0  0  0  0  0  0  0
    1.4287    0.1310   -4.4447 H   0  0  0  0  0  0  0  0  0  0  0  0
    1.7817    0.8305   -2.2910 C   0  0  0  0  0  0  0  0  0  0  0  0
    2.7579    0.8260   -1.7783 H   0  0  0  0  0  0  0  0  0  0  0  0
    1.3440    1.8307   -2.4488 H   0  0  0  0  0  0  0  0  0  0  0  0
    0.4698   -0.6522   -1.6366 Ru  0  0  0  0  0  0  0  0  0  0  0  0
    1.9809   -1.5109   -3.0004 C   0  0  0  0  0  0  0  0  0  0  0  0
    2.9272   -1.6714   -2.4707 H   0  0  0  0  0  0  0  0  0  0  0  0
    1.6396   -2.3433   -3.6384 H   0  0  0  0  0  0  0  0  0  0  0  0
    2.3499   -1.5527    0.1533 I   0  0  0  0  0  0  0  0  0  0  0  0
   -1.7771    0.3940   -2.8367 I   0  0  0  0  0  0  0  0  0  0  0  0
   -0.9356    0.9044    0.6282 N   0  0  0  0  0  0  0  0  0  0  0  0
   -0.9438   -1.2548    1.0568 N   0  0  0  0  0  0  0  0  0  0  0  0
   -0.4895   -0.3036    0.1774 C   0  0  0  0  0  0  0  0  0  0  0  0
   -1.6063    0.7946    1.9415 C   0  0  0  0  0  0  0  0  0  0  0  0
   -2.4976    1.4450    1.9846 H   0  0  0  0  0  0  0  0  0  0  0  0
   -0.8993    1.1053    2.7427 H   0  0  0  0  0  0  0  0  0  0  0  0
   -1.9393   -0.6891    1.9932 C   0  0  0  0  0  0  0  0  0  0  0  0
   -1.8452   -1.1247    3.0017 H   0  0  0  0  0  0  0  0  0  0  0  0
   -2.9602   -0.9050    1.6077 H   0  0  0  0  0  0  0  0  0  0  0  0
   -0.6604    2.2089    0.0962 C   0  0  0  0  0  0  0  0  0  0  0  0
   -1.7305    2.9689   -0.4316 C   0  0  0  0  0  0  0  0  0  0  0  0
   -1.4459    4.2411   -0.9571 C   0  0  0  0  0  0  0  0  0  0  0  0
   -2.2704    4.8255   -1.3945 H   0  0  0  0  0  0  0  0  0  0  0  0
   -0.1503    4.7812   -0.9426 C   0  0  0  0  0  0  0  0  0  0  0  0
    0.8685    4.0354   -0.3243 C   0  0  0  0  0  0  0  0  0  0  0  0
    1.8793    4.4648   -0.2412 H   0  0  0  0  0  0  0  0  0  0  0  0
    0.6369    2.7613    0.2215 C   0  0  0  0  0  0  0  0  0  0  0  0
   -3.1596    2.4901   -0.3896 C   0  0  0  0  0  0  0  0  0  0  0  0
   -3.6784    2.8944    0.5082 H   0  0  0  0  0  0  0  0  0  0  0  0
   -3.2294    1.3878   -0.3721 H   0  0  0  0  0  0  0  0  0  0  0  0
   -3.7186    2.8452   -1.2761 H   0  0  0  0  0  0  0  0  0  0  0  0
    0.1410    6.1218   -1.5679 C   0  0  0  0  0  0  0  0  0  0  0  0
    0.4554    6.0028   -2.6271 H   0  0  0  0  0  0  0  0  0  0  0  0
    0.9621    6.6478   -1.0421 H   0  0  0  0  0  0  0  0  0  0  0  0
   -0.7513    6.7779   -1.5641 H   0  0  0  0  0  0  0  0  0  0  0  0
    1.7295    2.0468    0.9645 C   0  0  0  0  0  0  0  0  0  0  0  0
    2.0797    1.1396    0.4332 H   0  0  0  0  0  0  0  0  0  0  0  0
    1.3814    1.6926    1.9567 H   0  0  0  0  0  0  0  0  0  0  0  0
    2.5955    2.7158    1.1260 H   0  0  0  0  0  0  0  0  0  0  0  0
   -0.6499   -2.6543    1.0944 C   0  0  0  0  0  0  0  0  0  0  0  0
   -0.8992   -3.4793   -0.0257 C   0  0  0  0  0  0  0  0  0  0  0  0
   -0.6406   -4.8546    0.0792 C   0  0  0  0  0  0  0  0  0  0  0  0
   -0.8300   -5.4924   -0.7984 H   0  0  0  0  0  0  0  0  0  0  0  0
   -0.1474   -5.4329    1.2611 C   0  0  0  0  0  0  0  0  0  0  0  0
    0.1242   -4.5813    2.3435 C   0  0  0  0  0  0  0  0  0  0  0  0
    0.5622   -5.0018    3.2624 H   0  0  0  0  0  0  0  0  0  0  0  0
   -0.1007   -3.1959    2.2826 C   0  0  0  0  0  0  0  0  0  0  0  0
   -1.3421   -2.8907   -1.3266 C   0  0  0  0  0  0  0  0  0  0  0  0
   -1.7005   -3.6640   -2.0322 H   0  0  0  0  0  0  0  0  0  0  0  0
   -0.4554   -2.4343   -1.8832 H   0  0  0  0  0  0  0  0  0  0  0  0
   -2.1156   -2.1093   -1.2296 H   0  0  0  0  0  0  0  0  0  0  0  0
    0.0833   -6.9195    1.3582 C   0  0  0  0  0  0  0  0  0  0  0  0
    0.5004   -7.3278    0.4163 H   0  0  0  0  0  0  0  0  0  0  0  0
   -0.8681   -7.4595    1.5530 H   0  0  0  0  0  0  0  0  0  0  0  0
    0.7801   -7.1702    2.1813 H   0  0  0  0  0  0  0  0  0  0  0  0
    0.3339   -2.3205    3.4300 C   0  0  0  0  0  0  0  0  0  0  0  0
   -0.4853   -2.1167    4.1538 H   0  0  0  0  0  0  0  0  0  0  0  0
    0.7194   -1.3506    3.0575 H   0  0  0  0  0  0  0  0  0  0  0  0
    1.1461   -2.8128    3.9977 H   0  0  0  0  0  0  0  0  0  0  0  0
  1  2  1  0  0  0  0
  1  7  1  0  0  0  0
  2  3  1  0  0  0  0
  2  4  1  0  0  0  0
  4  5  1  0  0  0  0
  6  4  1  0  0  0  0
  7  8  1  0  0  0  0
  7  4  1  0  0  0  0
  8  2  1  0  0  0  0
  8  9  1  0  0  0  0
 10  8  1  0  0  0  0
  7 11  1  0  0  0  0
  7 12  1  0  0  0  0
 13 15  1  0  0  0  0
 14 15  1  0  0  0  0
 16 13  1  0  0  0  0
 16 19  1  0  0  0  0
 17 16  1  0  0  0  0
 18 16  1  0  0  0  0
 19 14  1  0  0  0  0
 20 19  1  0  0  0  0
 21 19  1  0  0  0  0
 23 22  2  0  0  0  0
 24 23  1  0  0  0  0
 25 24  1  0  0  0  0
 26 24  2  0  0  0  0
 27 26  1  0  0  0  0
 27 29  2  0  0  0  0
 28 27  1  0  0  0  0
 29 22  1  0  0  0  0
 13 22  1  0  0  0  0
 31 30  1  0  0  0  0
 32 30  1  0  0  0  0
 33 30  1  0  0  0  0
 23 30  1  0  0  0  0
 35 34  1  0  0  0  0
 36 34  1  0  0  0  0
 37 34  1  0  0  0  0
 26 34  1  0  0  0  0
 39 38  1  0  0  0  0
 40 38  1  0  0  0  0
 41 38  1  0  0  0  0
 29 38  1  0  0  0  0
 43 42  2  0  0  0  0
 44 43  1  0  0  0  0
 45 44  1  0  0  0  0
 46 44  2  0  0  0  0
 47 46  1  0  0  0  0
 47 49  2  0  0  0  0
 48 47  1  0  0  0  0
 49 42  1  0  0  0  0
 14 42  1  0  0  0  0
 51 50  1  0  0  0  0
 52 50  1  0  0  0  0
 53 50  1  0  0  0  0
 43 50  1  0  0  0  0
 55 54  1  0  0  0  0
 56 54  1  0  0  0  0
 57 54  1  0  0  0  0
 46 54  1  0  0  0  0
 59 58  1  0  0  0  0
 60 58  1  0  0  0  0
 61 58  1  0  0  0  0
 49 58  1  0  0  0  0
  7 15  1  0  0  0  0
M  END
>  <DFT-ENERGY>
-1728.23265528

$$$$
