
  CDK     08162421343D

 67 70  0  0  0  0  0  0  0  0999 V2000
   -1.4128   -3.0580   -0.6164 C   0  0  0  0  0  0  0  0  0  0  0  0
   -2.0189   -3.1148    0.3049 H   0  0  0  0  0  0  0  0  0  0  0  0
   -1.6586   -3.9181   -1.2791 H   0  0  0  0  0  0  0  0  0  0  0  0
   -1.7135   -2.1423   -1.1678 H   0  0  0  0  0  0  0  0  0  0  0  0
    0.0722   -3.0833   -0.3356 C   0  0  0  0  0  0  0  0  0  0  0  0
    0.7100   -3.2055   -1.2304 H   0  0  0  0  0  0  0  0  0  0  0  0
    0.6585   -3.5305    0.8800 C   0  0  0  0  0  0  0  0  0  0  0  0
   -0.0214   -3.6847    1.7365 H   0  0  0  0  0  0  0  0  0  0  0  0
    1.9360   -4.3398    0.8514 C   0  0  0  0  0  0  0  0  0  0  0  0
    2.4317   -4.3935    1.8391 H   0  0  0  0  0  0  0  0  0  0  0  0
    1.6812   -5.3786    0.5491 H   0  0  0  0  0  0  0  0  0  0  0  0
    2.6480   -3.9328    0.1059 H   0  0  0  0  0  0  0  0  0  0  0  0
    1.7389   -1.7271    1.8631 C   0  0  0  0  0  0  0  0  0  0  0  0
    2.8168   -1.9044    1.6618 H   0  0  0  0  0  0  0  0  0  0  0  0
    1.3961   -1.8863    2.9093 H   0  0  0  0  0  0  0  0  0  0  0  0
    0.5820   -1.1543    0.5534 Ru  0  0  0  0  0  0  0  0  0  0  0  0
    2.6478   -1.1767   -1.2159 I   0  0  0  0  0  0  0  0  0  0  0  0
   -1.4508   -1.1909    2.3696 I   0  0  0  0  0  0  0  0  0  0  0  0
    1.3520    1.7592    1.0142 N   0  0  0  0  0  0  0  0  0  0  0  0
   -0.4263    1.5642   -0.2691 N   0  0  0  0  0  0  0  0  0  0  0  0
    0.5066    0.8656    0.4334 C   0  0  0  0  0  0  0  0  0  0  0  0
    0.9309    3.1583    0.7955 C   0  0  0  0  0  0  0  0  0  0  0  0
    1.7849    3.7656    0.4399 H   0  0  0  0  0  0  0  0  0  0  0  0
    0.5663    3.5966    1.7491 H   0  0  0  0  0  0  0  0  0  0  0  0
   -0.1818    3.0190   -0.2564 C   0  0  0  0  0  0  0  0  0  0  0  0
   -1.1055    3.5628    0.0198 H   0  0  0  0  0  0  0  0  0  0  0  0
    0.1347    3.3619   -1.2649 H   0  0  0  0  0  0  0  0  0  0  0  0
    2.5407    1.4442    1.7512 C   0  0  0  0  0  0  0  0  0  0  0  0
    3.7917    1.5239    1.0992 C   0  0  0  0  0  0  0  0  0  0  0  0
    4.9378    1.1507    1.8231 C   0  0  0  0  0  0  0  0  0  0  0  0
    5.9149    1.1856    1.3166 H   0  0  0  0  0  0  0  0  0  0  0  0
    4.8698    0.7337    3.1626 C   0  0  0  0  0  0  0  0  0  0  0  0
    3.6162    0.7475    3.8007 C   0  0  0  0  0  0  0  0  0  0  0  0
    3.5476    0.4768    4.8661 H   0  0  0  0  0  0  0  0  0  0  0  0
    2.4404    1.1145    3.1238 C   0  0  0  0  0  0  0  0  0  0  0  0
    3.9245    2.0546   -0.3044 C   0  0  0  0  0  0  0  0  0  0  0  0
    4.0828    3.1561   -0.2880 H   0  0  0  0  0  0  0  0  0  0  0  0
    3.0315    1.8327   -0.9156 H   0  0  0  0  0  0  0  0  0  0  0  0
    4.7939    1.6021   -0.8165 H   0  0  0  0  0  0  0  0  0  0  0  0
    6.1061    0.2798    3.8971 C   0  0  0  0  0  0  0  0  0  0  0  0
    6.2467   -0.8174    3.7914 H   0  0  0  0  0  0  0  0  0  0  0  0
    6.0398    0.4969    4.9813 H   0  0  0  0  0  0  0  0  0  0  0  0
    7.0189    0.7651    3.4999 H   0  0  0  0  0  0  0  0  0  0  0  0
    1.1267    1.1947    3.8508 C   0  0  0  0  0  0  0  0  0  0  0  0
    0.3734    0.4857    3.4460 H   0  0  0  0  0  0  0  0  0  0  0  0
    0.6822    2.2085    3.7648 H   0  0  0  0  0  0  0  0  0  0  0  0
    1.2591    0.9767    4.9272 H   0  0  0  0  0  0  0  0  0  0  0  0
   -1.5450    0.9748   -0.9476 C   0  0  0  0  0  0  0  0  0  0  0  0
   -1.3836    0.4843   -2.2660 C   0  0  0  0  0  0  0  0  0  0  0  0
   -2.4853   -0.1467   -2.8726 C   0  0  0  0  0  0  0  0  0  0  0  0
   -2.3682   -0.5426   -3.8935 H   0  0  0  0  0  0  0  0  0  0  0  0
   -3.7242   -0.2724   -2.2205 C   0  0  0  0  0  0  0  0  0  0  0  0
   -3.8696    0.3106   -0.9494 C   0  0  0  0  0  0  0  0  0  0  0  0
   -4.8450    0.2637   -0.4409 H   0  0  0  0  0  0  0  0  0  0  0  0
   -2.8050    0.9583   -0.3021 C   0  0  0  0  0  0  0  0  0  0  0  0
   -0.0959    0.6600   -3.0222 C   0  0  0  0  0  0  0  0  0  0  0  0
   -0.2419    0.4383   -4.0961 H   0  0  0  0  0  0  0  0  0  0  0  0
    0.7094   -0.0038   -2.6400 H   0  0  0  0  0  0  0  0  0  0  0  0
    0.2899    1.6960   -2.9347 H   0  0  0  0  0  0  0  0  0  0  0  0
   -4.8664   -1.0166   -2.8639 C   0  0  0  0  0  0  0  0  0  0  0  0
   -4.8794   -2.0765   -2.5302 H   0  0  0  0  0  0  0  0  0  0  0  0
   -4.7816   -1.0209   -3.9680 H   0  0  0  0  0  0  0  0  0  0  0  0
   -5.8461   -0.5784   -2.5902 H   0  0  0  0  0  0  0  0  0  0  0  0
   -3.0354    1.6764    1.0014 C   0  0  0  0  0  0  0  0  0  0  0  0
   -3.3383    2.7297    0.8083 H   0  0  0  0  0  0  0  0  0  0  0  0
   -2.1332    1.6773    1.6386 H   0  0  0  0  0  0  0  0  0  0  0  0
   -3.8466    1.1963    1.5792 H   0  0  0  0  0  0  0  0  0  0  0  0
  1  2  1  0  0  0  0
  1  5  1  0  0  0  0
  1  3  1  0  0  0  0
  1  4  1  0  0  0  0
  5  6  1  0  0  0  0
  5 16  1  0  0  0  0
  5  7  1  0  0  0  0
  7  9  1  0  0  0  0
  7  8  1  0  0  0  0
  9 10  1  0  0  0  0
  9 11  1  0  0  0  0
  9 12  1  0  0  0  0
 13 14  1  0  0  0  0
 13 15  1  0  0  0  0
  7 13  1  0  0  0  0
 13 16  1  0  0  0  0
 16 17  1  0  0  0  0
 16 18  1  0  0  0  0
 19 21  1  0  0  0  0
 20 21  1  0  0  0  0
 19 22  1  0  0  0  0
 22 25  1  0  0  0  0
 22 23  1  0  0  0  0
 22 24  1  0  0  0  0
 20 25  1  0  0  0  0
 25 26  1  0  0  0  0
 25 27  1  0  0  0  0
 28 29  2  0  0  0  0
 29 30  1  0  0  0  0
 30 31  1  0  0  0  0
 30 32  2  0  0  0  0
 32 33  1  0  0  0  0
 33 35  2  0  0  0  0
 33 34  1  0  0  0  0
 28 35  1  0  0  0  0
 19 28  1  0  0  0  0
 36 37  1  0  0  0  0
 36 38  1  0  0  0  0
 36 39  1  0  0  0  0
 29 36  1  0  0  0  0
 40 41  1  0  0  0  0
 40 42  1  0  0  0  0
 40 43  1  0  0  0  0
 32 40  1  0  0  0  0
 44 45  1  0  0  0  0
 44 46  1  0  0  0  0
 44 47  1  0  0  0  0
 35 44  1  0  0  0  0
 48 49  2  0  0  0  0
 49 50  1  0  0  0  0
 50 51  1  0  0  0  0
 50 52  2  0  0  0  0
 52 53  1  0  0  0  0
 53 55  2  0  0  0  0
 53 54  1  0  0  0  0
 48 55  1  0  0  0  0
 20 48  1  0  0  0  0
 56 57  1  0  0  0  0
 56 58  1  0  0  0  0
 56 59  1  0  0  0  0
 49 56  1  0  0  0  0
 60 61  1  0  0  0  0
 60 62  1  0  0  0  0
 60 63  1  0  0  0  0
 52 60  1  0  0  0  0
 64 65  1  0  0  0  0
 64 66  1  0  0  0  0
 64 67  1  0  0  0  0
 55 64  1  0  0  0  0
 16 21  1  0  0  0  0
M  END
>  <DFT-ENERGY>
-1806.77985612

$$$$
