
  CDK     08132419243D

 67 71  0  0  0  0  0  0  0  0999 V2000
    1.2459   -2.5131   -2.4089 H   0  0  0  0  0  0  0  0  0  0  0  0
    2.1915   -1.7401   -2.2598 C   0  0  0  0  0  0  0  0  0  0  0  0
    2.4899   -1.7985   -3.3312 H   0  0  0  0  0  0  0  0  0  0  0  0
    1.5891   -0.5508   -1.5997 C   0  0  0  0  0  0  0  0  0  0  0  0
    2.2571    0.0457   -0.9563 H   0  0  0  0  0  0  0  0  0  0  0  0
    0.8584    0.0458   -2.1680 H   0  0  0  0  0  0  0  0  0  0  0  0
    0.7959   -2.2866   -0.7081 Ru  0  0  0  0  0  0  0  0  0  0  0  0
    2.8975   -2.4254   -1.1755 C   0  0  0  0  0  0  0  0  0  0  0  0
    3.4849   -1.8045   -0.4832 H   0  0  0  0  0  0  0  0  0  0  0  0
    3.2515   -3.4612   -1.3032 H   0  0  0  0  0  0  0  0  0  0  0  0
    1.6512   -3.5593    1.1117 Cl  0  0  0  0  0  0  0  0  0  0  0  0
   -1.1431   -1.8502   -2.0178 Cl  0  0  0  0  0  0  0  0  0  0  0  0
   -0.4307   -1.6927    0.8022 C   0  0  0  0  0  0  0  0  0  0  0  0
   -0.3999   -0.5004    1.4518 N   0  0  0  0  0  0  0  0  0  0  0  0
   -1.3673   -0.4617    2.5663 C   0  0  0  0  0  0  0  0  0  0  0  0
   -2.2720   -1.6617    2.2500 C   0  0  0  0  0  0  0  0  0  0  0  0
   -1.4486   -2.4258    1.3006 N   0  0  0  0  0  0  0  0  0  0  0  0
   -0.8305   -0.5800    3.5325 H   0  0  0  0  0  0  0  0  0  0  0  0
   -1.9106    0.5011    2.5825 H   0  0  0  0  0  0  0  0  0  0  0  0
   -3.2253   -1.3541    1.7671 H   0  0  0  0  0  0  0  0  0  0  0  0
   -2.5136   -2.2632    3.1467 H   0  0  0  0  0  0  0  0  0  0  0  0
    0.4747    0.5963    1.1608 C   0  0  0  0  0  0  0  0  0  0  0  0
    2.1555    2.7436    0.5768 C   0  0  0  0  0  0  0  0  0  0  0  0
    1.7523    0.6483    1.7693 C   0  0  0  0  0  0  0  0  0  0  0  0
    0.0076    1.6150    0.2921 C   0  0  0  0  0  0  0  0  0  0  0  0
    0.8757    2.6859    0.0126 C   0  0  0  0  0  0  0  0  0  0  0  0
    2.5849    1.7375    1.4507 C   0  0  0  0  0  0  0  0  0  0  0  0
    0.5434    3.4870   -0.6631 H   0  0  0  0  0  0  0  0  0  0  0  0
    3.5857    1.7997    1.9013 H   0  0  0  0  0  0  0  0  0  0  0  0
    2.8224    3.5854    0.3391 H   0  0  0  0  0  0  0  0  0  0  0  0
   -1.4037    1.5977   -0.2819 C   0  0  0  0  0  0  0  0  0  0  0  0
   -1.8107    0.5771   -0.1374 H   0  0  0  0  0  0  0  0  0  0  0  0
    2.1993   -0.3947    2.7830 C   0  0  0  0  0  0  0  0  0  0  0  0
    1.5382   -1.2769    2.6746 H   0  0  0  0  0  0  0  0  0  0  0  0
   -1.4545    1.8870   -1.7888 C   0  0  0  0  0  0  0  0  0  0  0  0
   -1.0514    2.8910   -2.0350 H   0  0  0  0  0  0  0  0  0  0  0  0
   -2.5052    1.8571   -2.1415 H   0  0  0  0  0  0  0  0  0  0  0  0
   -0.8944    1.1245   -2.3618 H   0  0  0  0  0  0  0  0  0  0  0  0
   -2.2906    2.5975    0.4865 C   0  0  0  0  0  0  0  0  0  0  0  0
   -3.3415    2.5409    0.1359 H   0  0  0  0  0  0  0  0  0  0  0  0
   -1.9363    3.6381    0.3313 H   0  0  0  0  0  0  0  0  0  0  0  0
   -2.2797    2.4099    1.5796 H   0  0  0  0  0  0  0  0  0  0  0  0
    3.6341   -0.8848    2.5472 C   0  0  0  0  0  0  0  0  0  0  0  0
    3.7527   -1.2886    1.5242 H   0  0  0  0  0  0  0  0  0  0  0  0
    3.8758   -1.7026    3.2548 H   0  0  0  0  0  0  0  0  0  0  0  0
    4.3816   -0.0789    2.6996 H   0  0  0  0  0  0  0  0  0  0  0  0
    2.0451    0.1651    4.2106 C   0  0  0  0  0  0  0  0  0  0  0  0
    1.0086    0.5047    4.4110 H   0  0  0  0  0  0  0  0  0  0  0  0
    2.7131    1.0378    4.3682 H   0  0  0  0  0  0  0  0  0  0  0  0
    2.3081   -0.6058    4.9637 H   0  0  0  0  0  0  0  0  0  0  0  0
   -1.8191   -3.7605    0.8295 C   0  0  0  0  0  0  0  0  0  0  0  0
   -1.9829   -6.2139    1.3781 C   0  0  0  0  0  0  0  0  0  0  0  0
   -3.5350   -5.1840   -0.3392 C   0  0  0  0  0  0  0  0  0  0  0  0
   -3.3777   -6.2634    0.7402 C   0  0  0  0  0  0  0  0  0  0  0  0
   -3.2250   -3.7862    0.2125 C   0  0  0  0  0  0  0  0  0  0  0  0
   -1.6631   -4.8186    1.9314 C   0  0  0  0  0  0  0  0  0  0  0  0
   -1.2185   -6.4778    0.6134 H   0  0  0  0  0  0  0  0  0  0  0  0
   -2.8392   -5.3974   -1.1811 H   0  0  0  0  0  0  0  0  0  0  0  0
   -4.1473   -6.1050    1.5301 H   0  0  0  0  0  0  0  0  0  0  0  0
   -3.9770   -3.5256    0.9919 H   0  0  0  0  0  0  0  0  0  0  0  0
   -2.3583   -4.5861    2.7702 H   0  0  0  0  0  0  0  0  0  0  0  0
   -1.0880   -3.9885    0.0231 H   0  0  0  0  0  0  0  0  0  0  0  0
   -1.8937   -6.9714    2.1839 H   0  0  0  0  0  0  0  0  0  0  0  0
   -4.5589   -5.2040   -0.7662 H   0  0  0  0  0  0  0  0  0  0  0  0
   -3.5708   -7.2689    0.3118 H   0  0  0  0  0  0  0  0  0  0  0  0
   -3.2837   -3.0210   -0.5865 H   0  0  0  0  0  0  0  0  0  0  0  0
   -0.6293   -4.7718    2.3265 H   0  0  0  0  0  0  0  0  0  0  0  0
  1  2  1  0  0  0  0
  1  7  1  0  0  0  0
  2  3  1  0  0  0  0
  2  4  1  0  0  0  0
  4  5  1  0  0  0  0
  4  6  1  0  0  0  0
  7  8  1  0  0  0  0
  4  7  1  0  0  0  0
  2  8  1  0  0  0  0
  8  9  1  0  0  0  0
  8 10  1  0  0  0  0
  7 11  1  0  0  0  0
  7 12  1  0  0  0  0
 13 14  1  0  0  0  0
 13 17  1  0  0  0  0
 14 15  1  0  0  0  0
 14 22  1  0  0  0  0
 15 18  1  0  0  0  0
 15 19  1  0  0  0  0
 15 16  1  0  0  0  0
 16 20  1  0  0  0  0
 16 21  1  0  0  0  0
 16 17  1  0  0  0  0
 17 51  1  0  0  0  0
 22 25  2  0  0  0  0
 22 24  1  0  0  0  0
 23 26  2  0  0  0  0
 23 27  1  0  0  0  0
 23 30  1  0  0  0  0
 24 27  2  0  0  0  0
 24 33  1  0  0  0  0
 25 26  1  0  0  0  0
 25 31  1  0  0  0  0
 26 28  1  0  0  0  0
 27 29  1  0  0  0  0
 31 32  1  0  0  0  0
 31 35  1  0  0  0  0
 31 39  1  0  0  0  0
 33 34  1  0  0  0  0
 33 43  1  0  0  0  0
 33 47  1  0  0  0  0
 35 36  1  0  0  0  0
 35 37  1  0  0  0  0
 35 38  1  0  0  0  0
 39 40  1  0  0  0  0
 39 41  1  0  0  0  0
 39 42  1  0  0  0  0
 43 44  1  0  0  0  0
 43 45  1  0  0  0  0
 43 46  1  0  0  0  0
 47 48  1  0  0  0  0
 47 49  1  0  0  0  0
 47 50  1  0  0  0  0
 51 62  1  0  0  0  0
 51 55  1  0  0  0  0
 51 56  1  0  0  0  0
 52 57  1  0  0  0  0
 52 63  1  0  0  0  0
 52 54  1  0  0  0  0
 52 56  1  0  0  0  0
 53 58  1  0  0  0  0
 53 64  1  0  0  0  0
 53 55  1  0  0  0  0
 53 54  1  0  0  0  0
 54 59  1  0  0  0  0
 54 65  1  0  0  0  0
 55 60  1  0  0  0  0
 55 66  1  0  0  0  0
 56 61  1  0  0  0  0
 56 67  1  0  0  0  0
  7 13  1  0  0  0  0
M  END
>  <DFT-ENERGY>
-2060.44488826

$$$$
