
  CDK     08132406543D

 73 76  0  0  0  0  0  0  0  0999 V2000
   -3.7744   -0.1521   -1.8718 C   0  0  0  0  0  0  0  0  0  0  0  0
   -3.6510   -1.2162   -2.1407 H   0  0  0  0  0  0  0  0  0  0  0  0
   -4.7813    0.1982   -2.1916 H   0  0  0  0  0  0  0  0  0  0  0  0
   -3.0351    0.4372   -2.4511 H   0  0  0  0  0  0  0  0  0  0  0  0
   -3.6313    0.0771   -0.3845 C   0  0  0  0  0  0  0  0  0  0  0  0
   -3.6997    1.1302   -0.0515 H   0  0  0  0  0  0  0  0  0  0  0  0
   -4.0447   -0.8768    0.5826 C   0  0  0  0  0  0  0  0  0  0  0  0
   -4.2454   -1.8967    0.2091 H   0  0  0  0  0  0  0  0  0  0  0  0
   -4.7583   -0.4328    1.8391 C   0  0  0  0  0  0  0  0  0  0  0  0
   -4.8110   -1.2276    2.6066 H   0  0  0  0  0  0  0  0  0  0  0  0
   -5.8008   -0.1560    1.5708 H   0  0  0  0  0  0  0  0  0  0  0  0
   -4.2654    0.4613    2.2696 H   0  0  0  0  0  0  0  0  0  0  0  0
   -2.1901   -1.6363    1.7530 C   0  0  0  0  0  0  0  0  0  0  0  0
   -2.3660   -1.2272    2.7716 H   0  0  0  0  0  0  0  0  0  0  0  0
   -2.3095   -2.7349    1.6212 H   0  0  0  0  0  0  0  0  0  0  0  0
   -1.6638   -0.5622    0.3672 Ru  0  0  0  0  0  0  0  0  0  0  0  0
   -1.7358    1.4445    1.6907 Cl  0  0  0  0  0  0  0  0  0  0  0  0
   -1.5631   -2.4399   -1.1237 Cl  0  0  0  0  0  0  0  0  0  0  0  0
    0.3171   -0.4420    0.3453 C   0  0  0  0  0  0  0  0  0  0  0  0
    1.2336   -0.8943    1.2397 N   0  0  0  0  0  0  0  0  0  0  0  0
    2.6060   -0.6565    0.7425 C   0  0  0  0  0  0  0  0  0  0  0  0
    2.3790    0.4156   -0.3337 C   0  0  0  0  0  0  0  0  0  0  0  0
    0.9619    0.2003   -0.6578 N   0  0  0  0  0  0  0  0  0  0  0  0
    3.2693   -0.3212    1.5605 H   0  0  0  0  0  0  0  0  0  0  0  0
    3.0189   -1.5926    0.3087 H   0  0  0  0  0  0  0  0  0  0  0  0
    3.0270    0.2746   -1.2191 H   0  0  0  0  0  0  0  0  0  0  0  0
    2.5369    1.4432    0.0640 H   0  0  0  0  0  0  0  0  0  0  0  0
    0.9506   -1.6964    2.3971 C   0  0  0  0  0  0  0  0  0  0  0  0
    0.4209   -3.2302    4.6697 C   0  0  0  0  0  0  0  0  0  0  0  0
    0.8040   -1.0432    3.6488 C   0  0  0  0  0  0  0  0  0  0  0  0
    0.8462   -3.1057    2.2656 C   0  0  0  0  0  0  0  0  0  0  0  0
    0.5770   -3.8535    3.4272 C   0  0  0  0  0  0  0  0  0  0  0  0
    0.5361   -1.8399    4.7769 C   0  0  0  0  0  0  0  0  0  0  0  0
    0.4879   -4.9462    3.3521 H   0  0  0  0  0  0  0  0  0  0  0  0
    0.4130   -1.3582    5.7568 H   0  0  0  0  0  0  0  0  0  0  0  0
    0.2083   -3.8343    5.5642 H   0  0  0  0  0  0  0  0  0  0  0  0
    1.0697   -3.8164    0.9380 C   0  0  0  0  0  0  0  0  0  0  0  0
    0.9263   -3.0755    0.1260 H   0  0  0  0  0  0  0  0  0  0  0  0
    0.9729    0.4623    3.7954 C   0  0  0  0  0  0  0  0  0  0  0  0
    0.8023    0.9125    2.7978 H   0  0  0  0  0  0  0  0  0  0  0  0
    0.0621   -4.9466    0.6844 C   0  0  0  0  0  0  0  0  0  0  0  0
    0.1862   -5.7838    1.4025 H   0  0  0  0  0  0  0  0  0  0  0  0
    0.2104   -5.3572   -0.3340 H   0  0  0  0  0  0  0  0  0  0  0  0
   -0.9776   -4.5731    0.7352 H   0  0  0  0  0  0  0  0  0  0  0  0
    2.5091   -4.3659    0.8737 C   0  0  0  0  0  0  0  0  0  0  0  0
    2.7081   -4.8257   -0.1160 H   0  0  0  0  0  0  0  0  0  0  0  0
    2.6651   -5.1453    1.6490 H   0  0  0  0  0  0  0  0  0  0  0  0
    3.2686   -3.5772    1.0479 H   0  0  0  0  0  0  0  0  0  0  0  0
   -0.0519    1.0906    4.7495 C   0  0  0  0  0  0  0  0  0  0  0  0
   -1.0843    0.8481    4.4346 H   0  0  0  0  0  0  0  0  0  0  0  0
    0.0487    2.1942    4.7320 H   0  0  0  0  0  0  0  0  0  0  0  0
    0.0972    0.7623    5.7994 H   0  0  0  0  0  0  0  0  0  0  0  0
    2.4069    0.7913    4.2542 C   0  0  0  0  0  0  0  0  0  0  0  0
    3.1726    0.3731    3.5696 H   0  0  0  0  0  0  0  0  0  0  0  0
    2.6049    0.3694    5.2620 H   0  0  0  0  0  0  0  0  0  0  0  0
    2.5583    1.8890    4.3089 H   0  0  0  0  0  0  0  0  0  0  0  0
    0.2094    0.9719   -1.6475 C   0  0  0  0  0  0  0  0  0  0  0  0
   -0.6965    3.2115   -2.3604 C   0  0  0  0  0  0  0  0  0  0  0  0
   -0.1829    1.4376   -4.0959 C   0  0  0  0  0  0  0  0  0  0  0  0
   -0.2269    2.9421   -3.7963 C   0  0  0  0  0  0  0  0  0  0  0  0
    0.6810    0.6812   -3.0772 C   0  0  0  0  0  0  0  0  0  0  0  0
    0.1732    2.4735   -1.3343 C   0  0  0  0  0  0  0  0  0  0  0  0
   -1.7512    2.8728   -2.2459 H   0  0  0  0  0  0  0  0  0  0  0  0
   -1.2170    1.0261   -4.0650 H   0  0  0  0  0  0  0  0  0  0  0  0
    0.7912    3.3727   -3.9342 H   0  0  0  0  0  0  0  0  0  0  0  0
    1.7422    1.0022   -3.1818 H   0  0  0  0  0  0  0  0  0  0  0  0
    1.2098    2.8779   -1.3711 H   0  0  0  0  0  0  0  0  0  0  0  0
   -0.8356    0.5761   -1.5742 H   0  0  0  0  0  0  0  0  0  0  0  0
   -0.6959    4.2994   -2.1446 H   0  0  0  0  0  0  0  0  0  0  0  0
    0.1934    1.2523   -5.1228 H   0  0  0  0  0  0  0  0  0  0  0  0
   -0.8869    3.4592   -4.5232 H   0  0  0  0  0  0  0  0  0  0  0  0
    0.6441   -0.4126   -3.2541 H   0  0  0  0  0  0  0  0  0  0  0  0
   -0.2136    2.6151   -0.3042 H   0  0  0  0  0  0  0  0  0  0  0  0
  1  2  1  0  0  0  0
  1  5  1  0  0  0  0
  1  3  1  0  0  0  0
  1  4  1  0  0  0  0
  5  6  1  0  0  0  0
  5 16  1  0  0  0  0
  5  7  1  0  0  0  0
  7  9  1  0  0  0  0
  7  8  1  0  0  0  0
  9 10  1  0  0  0  0
  9 11  1  0  0  0  0
  9 12  1  0  0  0  0
 13 14  1  0  0  0  0
 13 15  1  0  0  0  0
  7 13  1  0  0  0  0
 13 16  1  0  0  0  0
 16 17  1  0  0  0  0
 16 18  1  0  0  0  0
 19 20  1  0  0  0  0
 19 23  1  0  0  0  0
 20 21  1  0  0  0  0
 20 28  1  0  0  0  0
 21 24  1  0  0  0  0
 21 25  1  0  0  0  0
 21 22  1  0  0  0  0
 22 26  1  0  0  0  0
 22 27  1  0  0  0  0
 22 23  1  0  0  0  0
 23 57  1  0  0  0  0
 28 31  2  0  0  0  0
 28 30  1  0  0  0  0
 29 32  2  0  0  0  0
 29 33  1  0  0  0  0
 29 36  1  0  0  0  0
 30 33  2  0  0  0  0
 30 39  1  0  0  0  0
 31 32  1  0  0  0  0
 31 37  1  0  0  0  0
 32 34  1  0  0  0  0
 33 35  1  0  0  0  0
 37 38  1  0  0  0  0
 37 41  1  0  0  0  0
 37 45  1  0  0  0  0
 39 40  1  0  0  0  0
 39 49  1  0  0  0  0
 39 53  1  0  0  0  0
 41 42  1  0  0  0  0
 41 43  1  0  0  0  0
 41 44  1  0  0  0  0
 45 46  1  0  0  0  0
 45 47  1  0  0  0  0
 45 48  1  0  0  0  0
 49 50  1  0  0  0  0
 49 51  1  0  0  0  0
 49 52  1  0  0  0  0
 53 54  1  0  0  0  0
 53 55  1  0  0  0  0
 53 56  1  0  0  0  0
 57 68  1  0  0  0  0
 57 61  1  0  0  0  0
 57 62  1  0  0  0  0
 58 63  1  0  0  0  0
 58 69  1  0  0  0  0
 58 60  1  0  0  0  0
 58 62  1  0  0  0  0
 59 64  1  0  0  0  0
 59 70  1  0  0  0  0
 59 61  1  0  0  0  0
 59 60  1  0  0  0  0
 60 65  1  0  0  0  0
 60 71  1  0  0  0  0
 61 66  1  0  0  0  0
 61 72  1  0  0  0  0
 62 67  1  0  0  0  0
 62 73  1  0  0  0  0
 16 19  1  0  0  0  0
M  END
>  <DFT-ENERGY>
-2138.98967238

$$$$
