
  CDK     08142420323D

 67 70  0  0  0  0  0  0  0  0999 V2000
    1.6660   -0.9677    0.1903 Ru  0  0  0  0  0  0  0  0  0  0  0  0
    3.1707   -0.8430   -1.0495 C   0  0  0  0  0  0  0  0  0  0  0  0
    2.9641   -1.1816   -2.0808 H   0  0  0  0  0  0  0  0  0  0  0  0
    3.6410   -2.0134   -0.0898 C   0  0  0  0  0  0  0  0  0  0  0  0
    3.7550   -2.9091   -0.7269 H   0  0  0  0  0  0  0  0  0  0  0  0
    2.6572   -2.4156    1.0772 C   0  0  0  0  0  0  0  0  0  0  0  0
    3.0561   -2.1774    2.0796 H   0  0  0  0  0  0  0  0  0  0  0  0
    2.2247   -3.4244    0.9499 H   0  0  0  0  0  0  0  0  0  0  0  0
    4.5756   -1.6695    0.3893 H   0  0  0  0  0  0  0  0  0  0  0  0
    3.7887    0.0683   -0.9549 H   0  0  0  0  0  0  0  0  0  0  0  0
    0.6397   -2.6203   -1.1963 Cl  0  0  0  0  0  0  0  0  0  0  0  0
    2.6805    0.5540    1.7251 Cl  0  0  0  0  0  0  0  0  0  0  0  0
   -0.0795   -0.0511    0.3829 C   0  0  0  0  0  0  0  0  0  0  0  0
   -0.6542    0.7655   -0.5311 N   0  0  0  0  0  0  0  0  0  0  0  0
   -1.8970    1.3502    0.0169 C   0  0  0  0  0  0  0  0  0  0  0  0
   -2.2177    0.3856    1.1691 C   0  0  0  0  0  0  0  0  0  0  0  0
   -0.8902   -0.1859    1.4543 N   0  0  0  0  0  0  0  0  0  0  0  0
   -1.7002    2.3801    0.3849 H   0  0  0  0  0  0  0  0  0  0  0  0
   -2.6879    1.3897   -0.7532 H   0  0  0  0  0  0  0  0  0  0  0  0
   -2.9253   -0.4147    0.8567 H   0  0  0  0  0  0  0  0  0  0  0  0
   -2.6329    0.9022    2.0540 H   0  0  0  0  0  0  0  0  0  0  0  0
   -0.0004    1.1965   -1.7402 C   0  0  0  0  0  0  0  0  0  0  0  0
    1.3120    1.9489   -4.0841 C   0  0  0  0  0  0  0  0  0  0  0  0
    0.9718    2.2296   -1.6798 C   0  0  0  0  0  0  0  0  0  0  0  0
   -0.3559    0.5625   -2.9597 C   0  0  0  0  0  0  0  0  0  0  0  0
    0.3235    0.9596   -4.1250 C   0  0  0  0  0  0  0  0  0  0  0  0
    1.6248    2.5806   -2.8762 C   0  0  0  0  0  0  0  0  0  0  0  0
    0.0764    0.4770   -5.0804 H   0  0  0  0  0  0  0  0  0  0  0  0
    2.3891    3.3693   -2.8574 H   0  0  0  0  0  0  0  0  0  0  0  0
    1.8387    2.2366   -5.0060 H   0  0  0  0  0  0  0  0  0  0  0  0
   -1.4724   -0.4688   -3.0378 C   0  0  0  0  0  0  0  0  0  0  0  0
   -1.5832   -0.9076   -2.0261 H   0  0  0  0  0  0  0  0  0  0  0  0
    1.2512    3.0107   -0.4028 C   0  0  0  0  0  0  0  0  0  0  0  0
    0.9856    2.3697    0.4615 H   0  0  0  0  0  0  0  0  0  0  0  0
   -1.1652   -1.6214   -4.0038 C   0  0  0  0  0  0  0  0  0  0  0  0
   -1.1471   -1.2823   -5.0606 H   0  0  0  0  0  0  0  0  0  0  0  0
   -1.9535   -2.3967   -3.9246 H   0  0  0  0  0  0  0  0  0  0  0  0
   -0.1969   -2.0941   -3.7556 H   0  0  0  0  0  0  0  0  0  0  0  0
   -2.7936    0.2191   -3.4376 C   0  0  0  0  0  0  0  0  0  0  0  0
   -3.6318   -0.5077   -3.4307 H   0  0  0  0  0  0  0  0  0  0  0  0
   -2.7187    0.6419   -4.4614 H   0  0  0  0  0  0  0  0  0  0  0  0
   -3.0574    1.0567   -2.7606 H   0  0  0  0  0  0  0  0  0  0  0  0
    2.7284    3.3893   -0.2321 C   0  0  0  0  0  0  0  0  0  0  0  0
    3.3787    2.4967   -0.2880 H   0  0  0  0  0  0  0  0  0  0  0  0
    2.8837    3.8441    0.7659 H   0  0  0  0  0  0  0  0  0  0  0  0
    3.0578    4.1303   -0.9900 H   0  0  0  0  0  0  0  0  0  0  0  0
    0.3734    4.2789   -0.3736 C   0  0  0  0  0  0  0  0  0  0  0  0
   -0.7047    4.0468   -0.4866 H   0  0  0  0  0  0  0  0  0  0  0  0
    0.6480    4.9629   -1.2038 H   0  0  0  0  0  0  0  0  0  0  0  0
    0.5116    4.8273    0.5807 H   0  0  0  0  0  0  0  0  0  0  0  0
   -0.6318   -1.2071    2.4752 C   0  0  0  0  0  0  0  0  0  0  0  0
   -0.6534   -1.7819    4.9247 C   0  0  0  0  0  0  0  0  0  0  0  0
   -0.8947   -3.6086    3.1844 C   0  0  0  0  0  0  0  0  0  0  0  0
   -1.2757   -3.1462    4.5972 C   0  0  0  0  0  0  0  0  0  0  0  0
   -1.2707   -2.5607    2.1285 C   0  0  0  0  0  0  0  0  0  0  0  0
   -1.0262   -0.7252    3.8749 C   0  0  0  0  0  0  0  0  0  0  0  0
    0.4547   -1.8807    4.9561 H   0  0  0  0  0  0  0  0  0  0  0  0
    0.2038   -3.7854    3.1388 H   0  0  0  0  0  0  0  0  0  0  0  0
   -2.3847   -3.0695    4.6697 H   0  0  0  0  0  0  0  0  0  0  0  0
   -2.3780   -2.4475    2.0988 H   0  0  0  0  0  0  0  0  0  0  0  0
   -2.1251   -0.5470    3.9100 H   0  0  0  0  0  0  0  0  0  0  0  0
    0.4771   -1.3243    2.4655 H   0  0  0  0  0  0  0  0  0  0  0  0
   -0.9662   -1.4404    5.9326 H   0  0  0  0  0  0  0  0  0  0  0  0
   -1.3766   -4.5786    2.9452 H   0  0  0  0  0  0  0  0  0  0  0  0
   -0.9638   -3.9003    5.3492 H   0  0  0  0  0  0  0  0  0  0  0  0
   -0.9374   -2.8719    1.1165 H   0  0  0  0  0  0  0  0  0  0  0  0
   -0.5250    0.2413    4.0860 H   0  0  0  0  0  0  0  0  0  0  0  0
  2  4  1  0  0  0  0
  2  1  1  0  0  0  0
  2  3  1  0  0  0  0
  4  6  1  0  0  0  0
  4  5  1  0  0  0  0
  6  1  1  0  0  0  0
  6  8  1  0  0  0  0
  7  6  1  0  0  0  0
  9  4  1  0  0  0  0
 10  2  1  0  0  0  0
  1 11  1  0  0  0  0
  1 12  1  0  0  0  0
 13 14  1  0  0  0  0
 13 17  1  0  0  0  0
 14 15  1  0  0  0  0
 14 22  1  0  0  0  0
 15 18  1  0  0  0  0
 15 19  1  0  0  0  0
 15 16  1  0  0  0  0
 16 20  1  0  0  0  0
 16 21  1  0  0  0  0
 16 17  1  0  0  0  0
 17 51  1  0  0  0  0
 22 25  2  0  0  0  0
 22 24  1  0  0  0  0
 23 26  2  0  0  0  0
 23 27  1  0  0  0  0
 23 30  1  0  0  0  0
 24 27  2  0  0  0  0
 24 33  1  0  0  0  0
 25 26  1  0  0  0  0
 25 31  1  0  0  0  0
 26 28  1  0  0  0  0
 27 29  1  0  0  0  0
 31 32  1  0  0  0  0
 31 35  1  0  0  0  0
 31 39  1  0  0  0  0
 33 34  1  0  0  0  0
 33 43  1  0  0  0  0
 33 47  1  0  0  0  0
 35 36  1  0  0  0  0
 35 37  1  0  0  0  0
 35 38  1  0  0  0  0
 39 40  1  0  0  0  0
 39 41  1  0  0  0  0
 39 42  1  0  0  0  0
 43 44  1  0  0  0  0
 43 45  1  0  0  0  0
 43 46  1  0  0  0  0
 47 48  1  0  0  0  0
 47 49  1  0  0  0  0
 47 50  1  0  0  0  0
 51 62  1  0  0  0  0
 51 55  1  0  0  0  0
 51 56  1  0  0  0  0
 52 57  1  0  0  0  0
 52 63  1  0  0  0  0
 52 54  1  0  0  0  0
 52 56  1  0  0  0  0
 53 58  1  0  0  0  0
 53 64  1  0  0  0  0
 53 55  1  0  0  0  0
 53 54  1  0  0  0  0
 54 59  1  0  0  0  0
 54 65  1  0  0  0  0
 55 60  1  0  0  0  0
 55 66  1  0  0  0  0
 56 61  1  0  0  0  0
 56 67  1  0  0  0  0
  1 13  1  0  0  0  0
M  END
>  <DFT-ENERGY>
-2060.48137894

$$$$
