
  CDK     08132406403D

 79 81  0  0  0  0  0  0  0  0999 V2000
   -0.1980   -4.0020   -2.5486 C   0  0  0  0  0  0  0  0  0  0  0  0
    0.8323   -3.7336   -2.8424 H   0  0  0  0  0  0  0  0  0  0  0  0
   -0.4345   -5.0182   -2.9355 H   0  0  0  0  0  0  0  0  0  0  0  0
   -0.8971   -3.3012   -3.0441 H   0  0  0  0  0  0  0  0  0  0  0  0
   -0.3762   -4.0132   -1.0474 C   0  0  0  0  0  0  0  0  0  0  0  0
   -1.4014   -4.2210   -0.6893 H   0  0  0  0  0  0  0  0  0  0  0  0
    0.6555   -4.4357   -0.1681 C   0  0  0  0  0  0  0  0  0  0  0  0
    1.6720   -4.4766   -0.5980 H   0  0  0  0  0  0  0  0  0  0  0  0
    0.3507   -5.3419    1.0018 C   0  0  0  0  0  0  0  0  0  0  0  0
    1.1849   -5.4038    1.7256 H   0  0  0  0  0  0  0  0  0  0  0  0
    0.1708   -6.3663    0.6092 H   0  0  0  0  0  0  0  0  0  0  0  0
   -0.5671   -5.0082    1.5245 H   0  0  0  0  0  0  0  0  0  0  0  0
    1.2626   -2.6632    1.2014 C   0  0  0  0  0  0  0  0  0  0  0  0
    0.8862   -3.0235    2.1825 H   0  0  0  0  0  0  0  0  0  0  0  0
    2.3618   -2.6611    1.0546 H   0  0  0  0  0  0  0  0  0  0  0  0
    0.1093   -2.0547   -0.0899 Ru  0  0  0  0  0  0  0  0  0  0  0  0
   -1.7536   -2.5735    1.3275 Cl  0  0  0  0  0  0  0  0  0  0  0  0
    1.9627   -1.7302   -1.6184 Cl  0  0  0  0  0  0  0  0  0  0  0  0
   -0.0299   -0.0825   -0.0916 C   0  0  0  0  0  0  0  0  0  0  0  0
   -0.8929    1.8311   -1.5956 C   0  0  0  0  0  0  0  0  0  0  0  0
    1.0114    2.2108    0.0131 C   0  0  0  0  0  0  0  0  0  0  0  0
   -0.3336    2.7393   -0.5094 C   0  0  0  0  0  0  0  0  0  0  0  0
    0.8059    0.7760    0.5287 N   0  0  0  0  0  0  0  0  0  0  0  0
   -1.1553    0.4270   -1.0307 C   0  0  0  0  0  0  0  0  0  0  0  0
   -0.1857    1.7770   -2.4471 H   0  0  0  0  0  0  0  0  0  0  0  0
   -1.0507    2.8361    0.3304 H   0  0  0  0  0  0  0  0  0  0  0  0
   -1.8360    2.2478   -2.0015 H   0  0  0  0  0  0  0  0  0  0  0  0
   -0.1641    3.7636   -0.8983 H   0  0  0  0  0  0  0  0  0  0  0  0
   -1.2830   -0.6376   -2.1573 C   0  0  0  0  0  0  0  0  0  0  0  0
   -2.4284    0.4724   -0.1149 C   0  0  0  0  0  0  0  0  0  0  0  0
    1.5229    3.1276    1.1273 C   0  0  0  0  0  0  0  0  0  0  0  0
    2.4810    2.7803    1.5521 H   0  0  0  0  0  0  0  0  0  0  0  0
    0.7997    3.2211    1.9574 H   0  0  0  0  0  0  0  0  0  0  0  0
    1.6840    4.1354    0.6955 H   0  0  0  0  0  0  0  0  0  0  0  0
    2.0127    2.2031   -1.1669 C   0  0  0  0  0  0  0  0  0  0  0  0
    1.8463    3.1076   -1.7863 H   0  0  0  0  0  0  0  0  0  0  0  0
    1.8877    1.3075   -1.8040 H   0  0  0  0  0  0  0  0  0  0  0  0
    3.0578    2.2330   -0.8227 H   0  0  0  0  0  0  0  0  0  0  0  0
    1.5313    0.3578    1.7339 C   0  0  0  0  0  0  0  0  0  0  0  0
    2.8334   -0.1846    4.1808 C   0  0  0  0  0  0  0  0  0  0  0  0
    0.7676    0.2416    2.9384 C   0  0  0  0  0  0  0  0  0  0  0  0
    2.9388    0.1334    1.7495 C   0  0  0  0  0  0  0  0  0  0  0  0
    3.5557   -0.1275    2.9908 C   0  0  0  0  0  0  0  0  0  0  0  0
    1.4475   -0.0180    4.1411 C   0  0  0  0  0  0  0  0  0  0  0  0
    4.6423   -0.2917    3.0114 H   0  0  0  0  0  0  0  0  0  0  0  0
    0.8674   -0.0972    5.0695 H   0  0  0  0  0  0  0  0  0  0  0  0
    3.3445   -0.3777    5.1352 H   0  0  0  0  0  0  0  0  0  0  0  0
    3.8645    0.1493    0.5354 C   0  0  0  0  0  0  0  0  0  0  0  0
    3.2412    0.2260   -0.3712 H   0  0  0  0  0  0  0  0  0  0  0  0
   -0.7530    0.3534    2.9935 C   0  0  0  0  0  0  0  0  0  0  0  0
   -1.1383   -0.0005    2.0215 H   0  0  0  0  0  0  0  0  0  0  0  0
   -1.3802   -0.5649    4.0544 C   0  0  0  0  0  0  0  0  0  0  0  0
   -2.4762   -0.6049    3.8991 H   0  0  0  0  0  0  0  0  0  0  0  0
   -1.2052   -0.1964    5.0870 H   0  0  0  0  0  0  0  0  0  0  0  0
   -1.0002   -1.5997    3.9683 H   0  0  0  0  0  0  0  0  0  0  0  0
   -1.2308    1.7968    3.2234 C   0  0  0  0  0  0  0  0  0  0  0  0
   -2.3367    1.8252    3.3058 H   0  0  0  0  0  0  0  0  0  0  0  0
   -0.9415    2.4751    2.3992 H   0  0  0  0  0  0  0  0  0  0  0  0
   -0.8088    2.2095    4.1637 H   0  0  0  0  0  0  0  0  0  0  0  0
    4.6695   -1.1555    0.3923 C   0  0  0  0  0  0  0  0  0  0  0  0
    5.3204   -1.0901   -0.5030 H   0  0  0  0  0  0  0  0  0  0  0  0
    4.0058   -2.0255    0.2392 H   0  0  0  0  0  0  0  0  0  0  0  0
    5.3226   -1.3429    1.2690 H   0  0  0  0  0  0  0  0  0  0  0  0
    4.8543    1.3297    0.6059 C   0  0  0  0  0  0  0  0  0  0  0  0
    5.5704    1.1948    1.4428 H   0  0  0  0  0  0  0  0  0  0  0  0
    4.3553    2.3058    0.7628 H   0  0  0  0  0  0  0  0  0  0  0  0
    5.4459    1.3944   -0.3303 H   0  0  0  0  0  0  0  0  0  0  0  0
   -2.4807   -0.4732    0.4603 H   0  0  0  0  0  0  0  0  0  0  0  0
   -2.2769    1.2775    0.6311 H   0  0  0  0  0  0  0  0  0  0  0  0
   -3.7802    0.6933   -0.7992 C   0  0  0  0  0  0  0  0  0  0  0  0
   -4.1100   -0.1973   -1.3679 H   0  0  0  0  0  0  0  0  0  0  0  0
   -3.7909    1.5643   -1.4865 H   0  0  0  0  0  0  0  0  0  0  0  0
   -4.5502    0.8803   -0.0236 H   0  0  0  0  0  0  0  0  0  0  0  0
   -0.2577   -0.8797   -2.5033 H   0  0  0  0  0  0  0  0  0  0  0  0
   -1.7008   -1.5680   -1.6935 H   0  0  0  0  0  0  0  0  0  0  0  0
   -2.1084   -0.2887   -3.4016 C   0  0  0  0  0  0  0  0  0  0  0  0
   -1.6964    0.6030   -3.9148 H   0  0  0  0  0  0  0  0  0  0  0  0
   -3.1752   -0.0956   -3.1927 H   0  0  0  0  0  0  0  0  0  0  0  0
   -2.0553   -1.1266   -4.1257 H   0  0  0  0  0  0  0  0  0  0  0  0
  1  2  1  0  0  0  0
  1  5  1  0  0  0  0
  1  3  1  0  0  0  0
  1  4  1  0  0  0  0
  5  6  1  0  0  0  0
  5 16  1  0  0  0  0
  5  7  1  0  0  0  0
  7  9  1  0  0  0  0
  7  8  1  0  0  0  0
  9 10  1  0  0  0  0
  9 11  1  0  0  0  0
  9 12  1  0  0  0  0
 13 14  1  0  0  0  0
 13 15  1  0  0  0  0
  7 13  1  0  0  0  0
 13 16  1  0  0  0  0
 16 17  1  0  0  0  0
 16 18  1  0  0  0  0
 19 23  1  0  0  0  0
 19 24  1  0  0  0  0
 20 25  1  0  0  0  0
 20 27  1  0  0  0  0
 20 22  1  0  0  0  0
 20 24  1  0  0  0  0
 21 23  1  0  0  0  0
 21 22  1  0  0  0  0
 21 31  1  0  0  0  0
 21 35  1  0  0  0  0
 22 26  1  0  0  0  0
 22 28  1  0  0  0  0
 23 39  1  0  0  0  0
 24 29  1  0  0  0  0
 24 30  1  0  0  0  0
 29 74  1  0  0  0  0
 29 75  1  0  0  0  0
 29 76  1  0  0  0  0
 30 68  1  0  0  0  0
 30 69  1  0  0  0  0
 30 70  1  0  0  0  0
 31 32  1  0  0  0  0
 31 33  1  0  0  0  0
 31 34  1  0  0  0  0
 35 36  1  0  0  0  0
 35 37  1  0  0  0  0
 35 38  1  0  0  0  0
 39 42  2  0  0  0  0
 39 41  1  0  0  0  0
 40 43  2  0  0  0  0
 40 44  1  0  0  0  0
 40 47  1  0  0  0  0
 41 44  2  0  0  0  0
 41 50  1  0  0  0  0
 42 43  1  0  0  0  0
 42 48  1  0  0  0  0
 43 45  1  0  0  0  0
 44 46  1  0  0  0  0
 48 49  1  0  0  0  0
 48 60  1  0  0  0  0
 48 64  1  0  0  0  0
 50 51  1  0  0  0  0
 50 52  1  0  0  0  0
 50 56  1  0  0  0  0
 52 53  1  0  0  0  0
 52 54  1  0  0  0  0
 52 55  1  0  0  0  0
 56 57  1  0  0  0  0
 56 58  1  0  0  0  0
 56 59  1  0  0  0  0
 60 61  1  0  0  0  0
 60 62  1  0  0  0  0
 60 63  1  0  0  0  0
 64 65  1  0  0  0  0
 64 66  1  0  0  0  0
 64 67  1  0  0  0  0
 70 71  1  0  0  0  0
 70 72  1  0  0  0  0
 70 73  1  0  0  0  0
 76 77  1  0  0  0  0
 76 78  1  0  0  0  0
 76 79  1  0  0  0  0
 16 19  1  0  0  0  0
M  END
>  <DFT-ENERGY>
-2163.37023875

$$$$
