
  CDK     08142418513D

 73 76  0  0  0  0  0  0  0  0999 V2000
    0.5890    0.1935   -3.9373 H   0  0  0  0  0  0  0  0  0  0  0  0
    1.7970    0.4070   -4.0330 C   0  0  0  0  0  0  0  0  0  0  0  0
    1.7123    0.4859   -5.1370 H   0  0  0  0  0  0  0  0  0  0  0  0
    2.3332   -0.7970   -3.3338 C   0  0  0  0  0  0  0  0  0  0  0  0
    3.3040   -0.7070   -2.8211 H   0  0  0  0  0  0  0  0  0  0  0  0
    2.1342   -1.7680   -3.8166 H   0  0  0  0  0  0  0  0  0  0  0  0
    0.7825   -0.0122   -2.1861 Ru  0  0  0  0  0  0  0  0  0  0  0  0
    1.8295    1.5749   -3.1301 C   0  0  0  0  0  0  0  0  0  0  0  0
    2.7710    1.7888   -2.6066 H   0  0  0  0  0  0  0  0  0  0  0  0
    1.2178    2.4519   -3.4046 H   0  0  0  0  0  0  0  0  0  0  0  0
    2.5025    0.3879   -0.4917 Cl  0  0  0  0  0  0  0  0  0  0  0  0
   -0.6471   -1.5950   -3.3180 Cl  0  0  0  0  0  0  0  0  0  0  0  0
    0.0420   -0.5481   -0.3281 C   0  0  0  0  0  0  0  0  0  0  0  0
   -0.0718   -1.8640    1.8434 C   0  0  0  0  0  0  0  0  0  0  0  0
   -0.8579    0.5208    1.7890 C   0  0  0  0  0  0  0  0  0  0  0  0
   -1.2108   -0.9154    2.2048 C   0  0  0  0  0  0  0  0  0  0  0  0
   -0.5541    0.4857    0.2836 N   0  0  0  0  0  0  0  0  0  0  0  0
    0.0872   -1.9496    0.3149 C   0  0  0  0  0  0  0  0  0  0  0  0
   -0.2595   -2.8722    2.2566 H   0  0  0  0  0  0  0  0  0  0  0  0
   -1.4060   -0.9143    3.2964 H   0  0  0  0  0  0  0  0  0  0  0  0
    0.8776   -1.5181    2.2969 H   0  0  0  0  0  0  0  0  0  0  0  0
   -2.1528   -1.2310    1.7111 H   0  0  0  0  0  0  0  0  0  0  0  0
   -1.1390   -2.7388   -0.2956 C   0  0  0  0  0  0  0  0  0  0  0  0
    1.4164   -2.6448   -0.0782 C   0  0  0  0  0  0  0  0  0  0  0  0
    0.3971    0.9478    2.5905 C   0  0  0  0  0  0  0  0  0  0  0  0
    0.4622    2.0405    2.7082 H   0  0  0  0  0  0  0  0  0  0  0  0
    1.3298    0.5870    2.1188 H   0  0  0  0  0  0  0  0  0  0  0  0
    0.3270    0.5137    3.6079 H   0  0  0  0  0  0  0  0  0  0  0  0
   -2.0053    1.4843    2.0952 C   0  0  0  0  0  0  0  0  0  0  0  0
   -2.0825    1.5918    3.1951 H   0  0  0  0  0  0  0  0  0  0  0  0
   -2.9780    1.1251    1.7191 H   0  0  0  0  0  0  0  0  0  0  0  0
   -1.8258    2.4882    1.6687 H   0  0  0  0  0  0  0  0  0  0  0  0
   -0.8469    1.6329   -0.6014 C   0  0  0  0  0  0  0  0  0  0  0  0
   -1.5711    3.7806   -2.2963 C   0  0  0  0  0  0  0  0  0  0  0  0
   -0.1307    2.8729   -0.5311 C   0  0  0  0  0  0  0  0  0  0  0  0
   -1.9392    1.4794   -1.5290 C   0  0  0  0  0  0  0  0  0  0  0  0
   -2.2640    2.5739   -2.3573 C   0  0  0  0  0  0  0  0  0  0  0  0
   -0.5192    3.9161   -1.3916 C   0  0  0  0  0  0  0  0  0  0  0  0
   -3.0953    2.4700   -3.0638 H   0  0  0  0  0  0  0  0  0  0  0  0
    0.0306    4.8658   -1.3417 H   0  0  0  0  0  0  0  0  0  0  0  0
   -1.8537    4.6172   -2.9519 H   0  0  0  0  0  0  0  0  0  0  0  0
   -2.8203    0.2346   -1.6601 C   0  0  0  0  0  0  0  0  0  0  0  0
   -2.1571   -0.6433   -1.5826 H   0  0  0  0  0  0  0  0  0  0  0  0
    1.0127    3.2065    0.4226 C   0  0  0  0  0  0  0  0  0  0  0  0
    1.3451    2.2702    0.8937 H   0  0  0  0  0  0  0  0  0  0  0  0
    2.2446    3.7861   -0.2936 C   0  0  0  0  0  0  0  0  0  0  0  0
    3.0565    3.9433    0.4451 H   0  0  0  0  0  0  0  0  0  0  0  0
    2.0350    4.7680   -0.7648 H   0  0  0  0  0  0  0  0  0  0  0  0
    2.6226    3.0914   -1.0619 H   0  0  0  0  0  0  0  0  0  0  0  0
    0.5471    4.2097    1.4971 C   0  0  0  0  0  0  0  0  0  0  0  0
    1.3562    4.3858    2.2354 H   0  0  0  0  0  0  0  0  0  0  0  0
   -0.3506    3.8702    2.0490 H   0  0  0  0  0  0  0  0  0  0  0  0
    0.2955    5.1881    1.0380 H   0  0  0  0  0  0  0  0  0  0  0  0
   -3.4943    0.1130   -3.0362 C   0  0  0  0  0  0  0  0  0  0  0  0
   -3.9180   -0.9052   -3.1377 H   0  0  0  0  0  0  0  0  0  0  0  0
   -2.7696    0.2495   -3.8599 H   0  0  0  0  0  0  0  0  0  0  0  0
   -4.3313    0.8320   -3.1603 H   0  0  0  0  0  0  0  0  0  0  0  0
   -3.8987    0.1327   -0.5683 C   0  0  0  0  0  0  0  0  0  0  0  0
   -4.4919    1.0672   -0.4899 H   0  0  0  0  0  0  0  0  0  0  0  0
   -3.4691   -0.0888    0.4248 H   0  0  0  0  0  0  0  0  0  0  0  0
   -4.5971   -0.6938   -0.8117 H   0  0  0  0  0  0  0  0  0  0  0  0
    1.5315   -2.5335   -1.1765 H   0  0  0  0  0  0  0  0  0  0  0  0
    2.2446   -2.0582    0.3640 H   0  0  0  0  0  0  0  0  0  0  0  0
    1.5653   -4.1167    0.3091 C   0  0  0  0  0  0  0  0  0  0  0  0
    0.8646   -4.7757   -0.2407 H   0  0  0  0  0  0  0  0  0  0  0  0
    1.4180   -4.2920    1.3951 H   0  0  0  0  0  0  0  0  0  0  0  0
    2.5904   -4.4597    0.0633 H   0  0  0  0  0  0  0  0  0  0  0  0
   -1.9649   -2.0341   -0.5083 H   0  0  0  0  0  0  0  0  0  0  0  0
   -0.8276   -3.1136   -1.2870 H   0  0  0  0  0  0  0  0  0  0  0  0
   -1.7277   -3.8785    0.5450 C   0  0  0  0  0  0  0  0  0  0  0  0
   -2.2387   -3.5195    1.4612 H   0  0  0  0  0  0  0  0  0  0  0  0
   -0.9768   -4.6292    0.8535 H   0  0  0  0  0  0  0  0  0  0  0  0
   -2.4919   -4.4064   -0.0613 H   0  0  0  0  0  0  0  0  0  0  0  0
  1  2  1  0  0  0  0
  1  7  1  0  0  0  0
  2  3  1  0  0  0  0
  2  4  1  0  0  0  0
  4  5  1  0  0  0  0
  6  4  1  0  0  0  0
  7  8  1  0  0  0  0
  7  4  1  0  0  0  0
  8  2  1  0  0  0  0
  8  9  1  0  0  0  0
 10  8  1  0  0  0  0
  7 11  1  0  0  0  0
  7 12  1  0  0  0  0
 13 17  1  0  0  0  0
 13 18  1  0  0  0  0
 14 19  1  0  0  0  0
 14 21  1  0  0  0  0
 14 16  1  0  0  0  0
 14 18  1  0  0  0  0
 15 17  1  0  0  0  0
 15 16  1  0  0  0  0
 15 25  1  0  0  0  0
 15 29  1  0  0  0  0
 16 20  1  0  0  0  0
 16 22  1  0  0  0  0
 17 33  1  0  0  0  0
 18 23  1  0  0  0  0
 18 24  1  0  0  0  0
 23 68  1  0  0  0  0
 23 69  1  0  0  0  0
 23 70  1  0  0  0  0
 24 62  1  0  0  0  0
 24 63  1  0  0  0  0
 24 64  1  0  0  0  0
 25 26  1  0  0  0  0
 25 27  1  0  0  0  0
 25 28  1  0  0  0  0
 29 30  1  0  0  0  0
 29 31  1  0  0  0  0
 29 32  1  0  0  0  0
 33 36  2  0  0  0  0
 33 35  1  0  0  0  0
 34 37  2  0  0  0  0
 34 38  1  0  0  0  0
 34 41  1  0  0  0  0
 35 38  2  0  0  0  0
 35 44  1  0  0  0  0
 36 37  1  0  0  0  0
 36 42  1  0  0  0  0
 37 39  1  0  0  0  0
 38 40  1  0  0  0  0
 42 43  1  0  0  0  0
 42 54  1  0  0  0  0
 42 58  1  0  0  0  0
 44 45  1  0  0  0  0
 44 46  1  0  0  0  0
 44 50  1  0  0  0  0
 46 47  1  0  0  0  0
 46 48  1  0  0  0  0
 46 49  1  0  0  0  0
 50 51  1  0  0  0  0
 50 52  1  0  0  0  0
 50 53  1  0  0  0  0
 54 55  1  0  0  0  0
 54 56  1  0  0  0  0
 54 57  1  0  0  0  0
 58 59  1  0  0  0  0
 58 60  1  0  0  0  0
 58 61  1  0  0  0  0
 64 65  1  0  0  0  0
 64 66  1  0  0  0  0
 64 67  1  0  0  0  0
 70 71  1  0  0  0  0
 70 72  1  0  0  0  0
 70 73  1  0  0  0  0
  7 13  1  0  0  0  0
M  END
>  <DFT-ENERGY>
-2084.81608675

$$$$
