
  CDK     08152401003D

 73 75  0  0  0  0  0  0  0  0999 V2000
    1.6014   -1.5564    0.4356 Ru  0  0  0  0  0  0  0  0  0  0  0  0
    3.0968   -1.6348   -0.8433 C   0  0  0  0  0  0  0  0  0  0  0  0
    2.8261   -1.8950   -1.8796 H   0  0  0  0  0  0  0  0  0  0  0  0
    3.4210   -2.8892    0.0562 C   0  0  0  0  0  0  0  0  0  0  0  0
    3.3844   -3.7736   -0.6052 H   0  0  0  0  0  0  0  0  0  0  0  0
    2.4125   -3.1665    1.2406 C   0  0  0  0  0  0  0  0  0  0  0  0
    2.8649   -3.0184    2.2367 H   0  0  0  0  0  0  0  0  0  0  0  0
    1.8286   -4.0933    1.1044 H   0  0  0  0  0  0  0  0  0  0  0  0
    4.4090   -2.7089    0.5179 H   0  0  0  0  0  0  0  0  0  0  0  0
    3.8247   -0.8113   -0.7376 H   0  0  0  0  0  0  0  0  0  0  0  0
    0.3413   -3.0818   -0.9548 Cl  0  0  0  0  0  0  0  0  0  0  0  0
    3.0064   -0.3166    1.9033 Cl  0  0  0  0  0  0  0  0  0  0  0  0
   -0.0834   -0.5809    0.6603 C   0  0  0  0  0  0  0  0  0  0  0  0
   -2.4186   -0.5221    1.7084 C   0  0  0  0  0  0  0  0  0  0  0  0
   -1.9549    0.6604   -0.4646 C   0  0  0  0  0  0  0  0  0  0  0  0
   -2.5702    0.7820    0.9379 C   0  0  0  0  0  0  0  0  0  0  0  0
   -0.4798    0.2927   -0.2800 N   0  0  0  0  0  0  0  0  0  0  0  0
   -0.9368   -0.9020    1.9087 C   0  0  0  0  0  0  0  0  0  0  0  0
   -2.9474   -1.3339    1.1725 H   0  0  0  0  0  0  0  0  0  0  0  0
   -2.0946    1.6219    1.4831 H   0  0  0  0  0  0  0  0  0  0  0  0
   -2.9033   -0.4434    2.7012 H   0  0  0  0  0  0  0  0  0  0  0  0
   -3.6412    1.0449    0.8213 H   0  0  0  0  0  0  0  0  0  0  0  0
   -0.7882   -2.4154    2.2616 C   0  0  0  0  0  0  0  0  0  0  0  0
   -0.3173    0.0078    3.0284 C   0  0  0  0  0  0  0  0  0  0  0  0
   -2.1015    1.9752   -1.2320 C   0  0  0  0  0  0  0  0  0  0  0  0
   -1.5783    1.9497   -2.2041 H   0  0  0  0  0  0  0  0  0  0  0  0
   -1.7199    2.8428   -0.6670 H   0  0  0  0  0  0  0  0  0  0  0  0
   -3.1794    2.1394   -1.4284 H   0  0  0  0  0  0  0  0  0  0  0  0
   -2.6835   -0.4712   -1.2288 C   0  0  0  0  0  0  0  0  0  0  0  0
   -3.7680   -0.4160   -1.0045 H   0  0  0  0  0  0  0  0  0  0  0  0
   -2.3105   -1.4713   -0.9387 H   0  0  0  0  0  0  0  0  0  0  0  0
   -2.5697   -0.3692   -2.3196 H   0  0  0  0  0  0  0  0  0  0  0  0
    0.5574    0.8655   -1.1522 C   0  0  0  0  0  0  0  0  0  0  0  0
    2.4997    2.1269   -2.7590 C   0  0  0  0  0  0  0  0  0  0  0  0
    1.3760    1.9025   -0.5937 C   0  0  0  0  0  0  0  0  0  0  0  0
    0.7262    0.4528   -2.5085 C   0  0  0  0  0  0  0  0  0  0  0  0
    1.7089    1.1052   -3.2796 C   0  0  0  0  0  0  0  0  0  0  0  0
    2.3307    2.5109   -1.4275 C   0  0  0  0  0  0  0  0  0  0  0  0
    1.8467    0.7950   -4.3245 H   0  0  0  0  0  0  0  0  0  0  0  0
    2.9633    3.3058   -1.0141 H   0  0  0  0  0  0  0  0  0  0  0  0
    3.2540    2.6221   -3.3877 H   0  0  0  0  0  0  0  0  0  0  0  0
   -0.0892   -0.6164   -3.2312 C   0  0  0  0  0  0  0  0  0  0  0  0
   -0.6690   -1.1751   -2.4777 H   0  0  0  0  0  0  0  0  0  0  0  0
    1.2946    2.3916    0.8534 C   0  0  0  0  0  0  0  0  0  0  0  0
    1.0532    1.5149    1.4788 H   0  0  0  0  0  0  0  0  0  0  0  0
    2.6329    2.9409    1.3766 C   0  0  0  0  0  0  0  0  0  0  0  0
    2.5732    3.0486    2.4777 H   0  0  0  0  0  0  0  0  0  0  0  0
    2.8592    3.9458    0.9622 H   0  0  0  0  0  0  0  0  0  0  0  0
    3.4694    2.2542    1.1552 H   0  0  0  0  0  0  0  0  0  0  0  0
    0.2158    3.4680    1.0695 C   0  0  0  0  0  0  0  0  0  0  0  0
    0.2840    3.8644    2.1032 H   0  0  0  0  0  0  0  0  0  0  0  0
   -0.8101    3.0821    0.9350 H   0  0  0  0  0  0  0  0  0  0  0  0
    0.3553    4.3192    0.3710 H   0  0  0  0  0  0  0  0  0  0  0  0
    0.7890   -1.6525   -3.9552 C   0  0  0  0  0  0  0  0  0  0  0  0
    0.1395   -2.4219   -4.4189 H   0  0  0  0  0  0  0  0  0  0  0  0
    1.4550   -2.1790   -3.2497 H   0  0  0  0  0  0  0  0  0  0  0  0
    1.3944   -1.1972   -4.7654 H   0  0  0  0  0  0  0  0  0  0  0  0
   -1.0364    0.0239   -4.2668 C   0  0  0  0  0  0  0  0  0  0  0  0
   -0.4574    0.5101   -5.0791 H   0  0  0  0  0  0  0  0  0  0  0  0
   -1.6994    0.7975   -3.8341 H   0  0  0  0  0  0  0  0  0  0  0  0
   -1.6775   -0.7525   -4.7324 H   0  0  0  0  0  0  0  0  0  0  0  0
    0.7869   -0.0860    2.9841 H   0  0  0  0  0  0  0  0  0  0  0  0
   -0.5440    1.0643    2.7759 H   0  0  0  0  0  0  0  0  0  0  0  0
   -0.7729   -0.2602    4.4643 C   0  0  0  0  0  0  0  0  0  0  0  0
   -0.4285   -1.2454    4.8336 H   0  0  0  0  0  0  0  0  0  0  0  0
   -1.8738   -0.2106    4.5912 H   0  0  0  0  0  0  0  0  0  0  0  0
   -0.3322    0.5078    5.1314 H   0  0  0  0  0  0  0  0  0  0  0  0
   -0.7460   -2.9859    1.3128 H   0  0  0  0  0  0  0  0  0  0  0  0
    0.2013   -2.5580    2.7475 H   0  0  0  0  0  0  0  0  0  0  0  0
   -1.8832   -3.0389    3.1365 C   0  0  0  0  0  0  0  0  0  0  0  0
   -2.8673   -3.0396    2.6274 H   0  0  0  0  0  0  0  0  0  0  0  0
   -2.0126   -2.5399    4.1145 H   0  0  0  0  0  0  0  0  0  0  0  0
   -1.6279   -4.0988    3.3364 H   0  0  0  0  0  0  0  0  0  0  0  0
  2  4  1  0  0  0  0
  2  1  1  0  0  0  0
  2  3  1  0  0  0  0
  4  6  1  0  0  0  0
  4  5  1  0  0  0  0
  6  1  1  0  0  0  0
  6  8  1  0  0  0  0
  7  6  1  0  0  0  0
  9  4  1  0  0  0  0
 10  2  1  0  0  0  0
  1 11  1  0  0  0  0
  1 12  1  0  0  0  0
 13 17  1  0  0  0  0
 13 18  1  0  0  0  0
 14 19  1  0  0  0  0
 14 21  1  0  0  0  0
 14 16  1  0  0  0  0
 14 18  1  0  0  0  0
 15 17  1  0  0  0  0
 15 16  1  0  0  0  0
 15 25  1  0  0  0  0
 15 29  1  0  0  0  0
 16 20  1  0  0  0  0
 16 22  1  0  0  0  0
 17 33  1  0  0  0  0
 18 23  1  0  0  0  0
 18 24  1  0  0  0  0
 23 68  1  0  0  0  0
 23 69  1  0  0  0  0
 23 70  1  0  0  0  0
 24 62  1  0  0  0  0
 24 63  1  0  0  0  0
 24 64  1  0  0  0  0
 25 26  1  0  0  0  0
 25 27  1  0  0  0  0
 25 28  1  0  0  0  0
 29 30  1  0  0  0  0
 29 31  1  0  0  0  0
 29 32  1  0  0  0  0
 33 36  2  0  0  0  0
 33 35  1  0  0  0  0
 34 37  2  0  0  0  0
 34 38  1  0  0  0  0
 34 41  1  0  0  0  0
 35 38  2  0  0  0  0
 35 44  1  0  0  0  0
 36 37  1  0  0  0  0
 36 42  1  0  0  0  0
 37 39  1  0  0  0  0
 38 40  1  0  0  0  0
 42 43  1  0  0  0  0
 42 54  1  0  0  0  0
 42 58  1  0  0  0  0
 44 45  1  0  0  0  0
 44 46  1  0  0  0  0
 44 50  1  0  0  0  0
 46 47  1  0  0  0  0
 46 48  1  0  0  0  0
 46 49  1  0  0  0  0
 50 51  1  0  0  0  0
 50 52  1  0  0  0  0
 50 53  1  0  0  0  0
 54 55  1  0  0  0  0
 54 56  1  0  0  0  0
 54 57  1  0  0  0  0
 58 59  1  0  0  0  0
 58 60  1  0  0  0  0
 58 61  1  0  0  0  0
 64 65  1  0  0  0  0
 64 66  1  0  0  0  0
 64 67  1  0  0  0  0
 70 71  1  0  0  0  0
 70 72  1  0  0  0  0
 70 73  1  0  0  0  0
  1 13  1  0  0  0  0
M  END
>  <DFT-ENERGY>
-2084.86632441

$$$$
