SIMesI-4_A2
  CDK     08162410283D

 75 79  0  0  0  0  0  0  0  0999 V2000
    0.7201   -0.6821   -0.4778 Ru  0  0  0  0  0  0  0  0  0  0  0  0
    2.4979   -0.6821   -1.8670 O   0  0  0  0  0  0  0  0  0  0  0  0
    1.9303    0.2512    0.5263 C   0  0  0  0  0  0  0  0  0  0  0  0
    1.6975    0.5441    1.5490 H   0  0  0  0  0  0  0  0  0  0  0  0
    2.7334   -1.4573   -3.0928 C   0  0  0  0  0  0  0  0  0  0  0  0
    3.1025   -0.7413   -3.8588 H   0  0  0  0  0  0  0  0  0  0  0  0
    1.3230   -1.9462   -3.3860 C   0  0  0  0  0  0  0  0  0  0  0  0
    1.2608   -2.4606   -4.3490 H   0  0  0  0  0  0  0  0  0  0  0  0
    0.9639   -2.6452   -2.6043 H   0  0  0  0  0  0  0  0  0  0  0  0
    0.6062   -1.0979   -3.4020 H   0  0  0  0  0  0  0  0  0  0  0  0
    3.7183   -2.5699   -2.7870 C   0  0  0  0  0  0  0  0  0  0  0  0
    3.4441   -3.0737   -1.8371 H   0  0  0  0  0  0  0  0  0  0  0  0
    3.7168   -3.3375   -3.5684 H   0  0  0  0  0  0  0  0  0  0  0  0
    4.7456   -2.2123   -2.6661 H   0  0  0  0  0  0  0  0  0  0  0  0
    3.4901    0.1163   -1.3620 C   0  0  0  0  0  0  0  0  0  0  0  0
    4.6592    0.4651   -2.0150 C   0  0  0  0  0  0  0  0  0  0  0  0
    4.8770    0.1172   -3.0230 H   0  0  0  0  0  0  0  0  0  0  0  0
    5.5604    1.2961   -1.3575 C   0  0  0  0  0  0  0  0  0  0  0  0
    6.4841    1.5845   -1.8671 H   0  0  0  0  0  0  0  0  0  0  0  0
    5.3104    1.7677   -0.0722 C   0  0  0  0  0  0  0  0  0  0  0  0
    6.0353    2.4132    0.4224 H   0  0  0  0  0  0  0  0  0  0  0  0
    4.1407    1.4074    0.5694 C   0  0  0  0  0  0  0  0  0  0  0  0
    3.9475    1.7620    1.5807 H   0  0  0  0  0  0  0  0  0  0  0  0
    3.2052    0.5920   -0.0700 C   0  0  0  0  0  0  0  0  0  0  0  0
    1.7188   -2.9131    0.5914 I   0  0  0  0  0  0  0  0  0  0  0  0
   -0.0603    1.4493   -1.8394 I   0  0  0  0  0  0  0  0  0  0  0  0
   -1.2069   -0.1673    1.8945 N   0  0  0  0  0  0  0  0  0  0  0  0
   -2.1130   -1.3588    0.2471 N   0  0  0  0  0  0  0  0  0  0  0  0
   -0.9459   -0.7167    0.6489 C   0  0  0  0  0  0  0  0  0  0  0  0
   -2.6037   -0.4423    2.3944 C   0  0  0  0  0  0  0  0  0  0  0  0
   -3.1372    0.5122    2.5757 H   0  0  0  0  0  0  0  0  0  0  0  0
   -2.5623   -0.9940    3.3550 H   0  0  0  0  0  0  0  0  0  0  0  0
   -3.2272   -1.2683    1.2587 C   0  0  0  0  0  0  0  0  0  0  0  0
   -3.5315   -2.2842    1.5815 H   0  0  0  0  0  0  0  0  0  0  0  0
   -4.1131   -0.7779    0.8060 H   0  0  0  0  0  0  0  0  0  0  0  0
   -0.3724    0.6138    2.7726 C   0  0  0  0  0  0  0  0  0  0  0  0
   -0.3740    2.0275    2.6648 C   0  0  0  0  0  0  0  0  0  0  0  0
    0.3713    2.7773    3.5827 C   0  0  0  0  0  0  0  0  0  0  0  0
    0.3773    3.8629    3.5062 H   0  0  0  0  0  0  0  0  0  0  0  0
    1.1044    2.1491    4.5997 C   0  0  0  0  0  0  0  0  0  0  0  0
    1.1013    0.7515    4.6963 C   0  0  0  0  0  0  0  0  0  0  0  0
    1.6732    0.2629    5.4827 H   0  0  0  0  0  0  0  0  0  0  0  0
    0.3676   -0.0306    3.7944 C   0  0  0  0  0  0  0  0  0  0  0  0
   -1.1364    2.7133    1.5866 C   0  0  0  0  0  0  0  0  0  0  0  0
   -1.0166    3.8032    1.5965 H   0  0  0  0  0  0  0  0  0  0  0  0
   -2.2112    2.4995    1.6361 H   0  0  0  0  0  0  0  0  0  0  0  0
   -0.7950    2.3685    0.5792 H   0  0  0  0  0  0  0  0  0  0  0  0
    1.8746    2.9749    5.5774 C   0  0  0  0  0  0  0  0  0  0  0  0
    2.5898    2.3838    6.1646 H   0  0  0  0  0  0  0  0  0  0  0  0
    1.1968    3.4645    6.2932 H   0  0  0  0  0  0  0  0  0  0  0  0
    2.4465    3.7711    5.0801 H   0  0  0  0  0  0  0  0  0  0  0  0
    0.3906   -1.5147    3.9062 C   0  0  0  0  0  0  0  0  0  0  0  0
    0.7709   -1.9758    2.9626 H   0  0  0  0  0  0  0  0  0  0  0  0
   -0.6087   -1.9346    4.0749 H   0  0  0  0  0  0  0  0  0  0  0  0
    1.0402   -1.8779    4.7116 H   0  0  0  0  0  0  0  0  0  0  0  0
   -2.4144   -2.0794   -0.9671 C   0  0  0  0  0  0  0  0  0  0  0  0
   -3.0556   -1.4091   -2.0407 C   0  0  0  0  0  0  0  0  0  0  0  0
   -3.3698   -2.1275   -3.2010 C   0  0  0  0  0  0  0  0  0  0  0  0
   -3.8373   -1.6128   -4.0379 H   0  0  0  0  0  0  0  0  0  0  0  0
   -3.0961   -3.4992   -3.2960 C   0  0  0  0  0  0  0  0  0  0  0  0
   -2.5273   -4.1678   -2.2054 C   0  0  0  0  0  0  0  0  0  0  0  0
   -2.3404   -5.2378   -2.2644 H   0  0  0  0  0  0  0  0  0  0  0  0
   -2.2014   -3.4789   -1.0286 C   0  0  0  0  0  0  0  0  0  0  0  0
   -3.4219    0.0305   -1.9500 C   0  0  0  0  0  0  0  0  0  0  0  0
   -2.4998    0.6605   -1.8793 H   0  0  0  0  0  0  0  0  0  0  0  0
   -4.0238    0.2535   -1.0618 H   0  0  0  0  0  0  0  0  0  0  0  0
   -3.9749    0.3914   -2.8249 H   0  0  0  0  0  0  0  0  0  0  0  0
   -3.4400   -4.2396   -4.5473 C   0  0  0  0  0  0  0  0  0  0  0  0
   -3.0511   -3.7274   -5.4390 H   0  0  0  0  0  0  0  0  0  0  0  0
   -4.5304   -4.3189   -4.6698 H   0  0  0  0  0  0  0  0  0  0  0  0
   -3.0381   -5.2611   -4.5620 H   0  0  0  0  0  0  0  0  0  0  0  0
   -1.6618   -4.2329    0.1345 C   0  0  0  0  0  0  0  0  0  0  0  0
   -1.6112   -5.3144   -0.0359 H   0  0  0  0  0  0  0  0  0  0  0  0
   -2.2471   -4.0686    1.0465 H   0  0  0  0  0  0  0  0  0  0  0  0
   -0.6172   -3.9018    0.3641 H   0  0  0  0  0  0  0  0  0  0  0  0
  1  2  1  0  0  0  0
  1  3  2  0  0  0  0
  3  4  1  0  0  0  0
  2  5  1  0  0  0  0
  5  6  1  0  0  0  0
  5  7  1  0  0  0  0
  7  8  1  0  0  0  0
  7  9  1  0  0  0  0
  7 10  1  0  0  0  0
  5 11  1  0  0  0  0
 11 12  1  0  0  0  0
 11 13  1  0  0  0  0
 11 14  1  0  0  0  0
  2 15  1  0  0  0  0
 15 24  1  0  0  0  0
 15 16  2  0  0  0  0
 16 17  1  0  0  0  0
 16 18  1  0  0  0  0
 18 19  1  0  0  0  0
 18 20  2  0  0  0  0
 20 21  1  0  0  0  0
 20 22  1  0  0  0  0
 22 24  2  0  0  0  0
 22 23  1  0  0  0  0
  3 24  1  0  0  0  0
  1 25  1  0  0  0  0
  1 26  1  0  0  0  0
 27 29  1  0  0  0  0
 28 29  1  0  0  0  0
 27 30  1  0  0  0  0
 30 31  1  0  0  0  0
 30 32  1  0  0  0  0
 28 33  1  0  0  0  0
 33 34  1  0  0  0  0
 33 35  1  0  0  0  0
 30 33  1  0  0  0  0
  1 29  1  0  0  0  0
 36 37  2  0  0  0  0
 37 38  1  0  0  0  0
 38 39  1  0  0  0  0
 38 40  2  0  0  0  0
 40 41  1  0  0  0  0
 41 42  1  0  0  0  0
 36 43  1  0  0  0  0
 41 43  2  0  0  0  0
 27 36  1  0  0  0  0
 44 45  1  0  0  0  0
 44 46  1  0  0  0  0
 44 47  1  0  0  0  0
 37 44  1  0  0  0  0
 48 49  1  0  0  0  0
 48 50  1  0  0  0  0
 48 51  1  0  0  0  0
 40 48  1  0  0  0  0
 52 53  1  0  0  0  0
 52 54  1  0  0  0  0
 52 55  1  0  0  0  0
 43 52  1  0  0  0  0
 56 57  2  0  0  0  0
 57 58  1  0  0  0  0
 58 59  1  0  0  0  0
 58 60  2  0  0  0  0
 60 61  1  0  0  0  0
 61 62  1  0  0  0  0
 56 63  1  0  0  0  0
 61 63  2  0  0  0  0
 28 56  1  0  0  0  0
 64 65  1  0  0  0  0
 64 66  1  0  0  0  0
 64 67  1  0  0  0  0
 57 64  1  0  0  0  0
 68 69  1  0  0  0  0
 68 70  1  0  0  0  0
 68 71  1  0  0  0  0
 60 68  1  0  0  0  0
 72 73  1  0  0  0  0
 72 74  1  0  0  0  0
 72 75  1  0  0  0  0
 63 72  1  0  0  0  0
M  END
> <FrozenCore-PM6_ENERGY>
200.532

> <RMSD_CONF_CG-CS>
1.106582

> <RMSD_CONF_GO-CS>
0.000000

> <UID>


> <DESCRIPTOR_DEFINITION_1>
desc1=( echo "1 * ( e( $hartree_to_kcalmol * ( ( $freeEnergyZ - $freeEnergyD ) - ( $freeEnergyX + 2*$G_Ethene - $freeEnergyD - 2*$G_Propene ) - $DDG_reference_HGII ) / $kT ) ) " | bc -l )

> <DESCRIPTOR_DEFINITION_2>
desc1=( echo "1 * ( e( $hartree_to_kcalmol * ( ( $freeEnergyZ - $freeEnergyD ) - ( $freeEnergyX + 2*$G_Ethene - $freeEnergyD - 2*$G_Propene ) - $DDG_reference_HGII ) / $kT ) ) " | bc -l )

> <DESCRIPTOR_DEFINITION_3>
desc1=( echo "1 * ( e( $hartree_to_kcalmol * ( ( $freeEnergyZ - $freeEnergyD ) - ( $freeEnergyX + 2*$G_Ethene - $freeEnergyD - 2*$G_Propene ) - $DDG_reference_HGII ) / $kT ) ) " | bc -l )

> <WEIGHT_DEFINITION_1>
w1=$( echo "1 / ( 1 + e( $hartree_to_kcalmol * ( ( ( $freeEnergyX + 2*$G_Ethene - $freeEnergyD - 2*$G_Propene ) ) - ( $DG_referenceProductionBarrier + $magnitude4 ) ) / $kT ) )" | bc -l )

> <WEIGHT_DEFINITION_2>
w1=$( echo "1 / ( 1 + e( $hartree_to_kcalmol * ( ( ( $freeEnergyX + 2*$G_Ethene - $freeEnergyD - 2*$G_Propene ) ) - ( $DG_referenceProductionBarrier + $magnitude4 ) ) / $kT ) )" | bc -l )

> <WEIGHT_DEFINITION_3>
w1=$( echo "1 / ( 1 + e( $hartree_to_kcalmol * ( ( ( $freeEnergyX + 2*$G_Ethene - $freeEnergyD - 2*$G_Propene ) ) - ( $DG_referenceProductionBarrier + $magnitude4 ) ) / $kT ) )" | bc -l )

> <WEIGHT_DEFINITION_4>
w1=$( echo "1 / ( 1 + e( $hartree_to_kcalmol * ( ( ( $freeEnergyX + 2*$G_Ethene - $freeEnergyD - 2*$G_Propene ) ) - ( $DG_referenceProductionBarrier + $magnitude4 ) ) / $kT ) )" | bc -l )

> <CALCULATION_OF_OVERALL_FITNESS>
fitness=$( echo "( $desc1 + $desc2 + $desc3 ) * ( $w1 * $w2 * $w3 * $w4 )" | bc -l )

> <freeEnergyA>
-2073.50705661

> <freeEnergyF>
-2073.49582708

> <freeEnergyE>
-2402.13792015

> <freeEnergyC>
-1728.25212599

> <freeEnergyL>
-924.272484172

> <freeEnergyX>
-1806.77985815

> <freeEnergyZ>
-1728.23265826

> <freeEnergyD>
-1728.27309435

> <G_Propene>
-117.738020895

> <G_Ethene>
-78.4716324751

> <G_HoveydaProd>
-502.204109499

> <G_SIMes>
-924.27249048

> <G_HG_RuCl2_SIMes>
-2402.13728523

> <DG_referenceProductionBarrier>
0.01468968

> <DG_referencePrecursorStabilityHII>
-0.0052201621

> <DG_referencePrecursorStabilityHI>
0.0117775312

> <DDG_referencePrecursorStability>
.0169976933

> <DG_referenceSynt>
0.0226072217

> <hartree_to_kcalmol>
627.49467516

> <boltzmann_constant>
0.0000000000000000000000138066

> <avogadro_number>
602214000000000000000000

> <jmol_to_kcalmol>
0.00023901

> <temp>
313.15

> <kT>
.6223089948281258706000000000

> <magnitude1>
1.43290809

> <magnitude2>
2.86581618

> <magnitude3>
4.29872427

> <magnitude4>
5.73163236

> <DFT_IDENTIFIER>
1723879172233

> <DFT_MACHINE>
158.39.114.73

> <XTB_IDENTIFIER>
NREC

> <XTB_MACHINE>
NREC

> <DESCRIPTOR_1>
.00038077274786377279

> <DESCRIPTOR_2>
9.050387200065373032

> <DESCRIPTOR_3>
0.0000000001

> <WEIGHT_1>
.99566838509588849384

> <WEIGHT_2>
.99999999275064679401

> <WEIGHT_3>
.99999999999340522500

> <WEIGHT_4>
.99879247174234194553

> <FITNESS>
9.00068174854970315705

$$$$
