
  CDK     08172408183D

 61 64  0  0  0  0  0  0  0  0999 V2000
    1.2723    0.7861   -0.1473 Ru  0  0  0  0  0  0  0  0  0  0  0  0
    2.9660    0.5916   -1.1348 C   0  0  0  0  0  0  0  0  0  0  0  0
    2.9053    0.7106   -2.2310 H   0  0  0  0  0  0  0  0  0  0  0  0
    3.1838    1.9568   -0.3696 C   0  0  0  0  0  0  0  0  0  0  0  0
    3.3199    2.7273   -1.1523 H   0  0  0  0  0  0  0  0  0  0  0  0
    2.0111    2.4726    0.5553 C   0  0  0  0  0  0  0  0  0  0  0  0
    2.2727    2.4787    1.6281 H   0  0  0  0  0  0  0  0  0  0  0  0
    1.5401    3.3974    0.1759 H   0  0  0  0  0  0  0  0  0  0  0  0
    4.0535    1.8015    0.2971 H   0  0  0  0  0  0  0  0  0  0  0  0
    3.6377   -0.2112   -0.7805 H   0  0  0  0  0  0  0  0  0  0  0  0
    0.2996    2.1429   -2.2684 I   0  0  0  0  0  0  0  0  0  0  0  0
    2.3963   -0.4693    1.9618 I   0  0  0  0  0  0  0  0  0  0  0  0
   -1.3455   -0.1000    1.0329 N   0  0  0  0  0  0  0  0  0  0  0  0
   -0.8595   -1.2256   -0.8014 N   0  0  0  0  0  0  0  0  0  0  0  0
   -0.4308   -0.2546    0.0435 C   0  0  0  0  0  0  0  0  0  0  0  0
   -2.5527   -0.9182    0.7953 C   0  0  0  0  0  0  0  0  0  0  0  0
   -3.3889   -0.2659    0.4618 H   0  0  0  0  0  0  0  0  0  0  0  0
   -2.8601   -1.4328    1.7243 H   0  0  0  0  0  0  0  0  0  0  0  0
   -2.0830   -1.8857   -0.3015 C   0  0  0  0  0  0  0  0  0  0  0  0
   -1.8314   -2.8936    0.0945 H   0  0  0  0  0  0  0  0  0  0  0  0
   -2.8193   -2.0048   -1.1177 H   0  0  0  0  0  0  0  0  0  0  0  0
   -1.2110    0.7809    2.1572 C   0  0  0  0  0  0  0  0  0  0  0  0
   -1.4411    2.1656    1.9987 C   0  0  0  0  0  0  0  0  0  0  0  0
   -1.2374    2.9968    3.1172 C   0  0  0  0  0  0  0  0  0  0  0  0
   -1.4034    4.0797    3.0047 H   0  0  0  0  0  0  0  0  0  0  0  0
   -0.8498    2.4862    4.3651 C   0  0  0  0  0  0  0  0  0  0  0  0
   -0.6999    1.0930    4.4981 C   0  0  0  0  0  0  0  0  0  0  0  0
   -0.4197    0.6699    5.4752 H   0  0  0  0  0  0  0  0  0  0  0  0
   -0.8830    0.2206    3.4163 C   0  0  0  0  0  0  0  0  0  0  0  0
   -1.9164    2.7573    0.6997 C   0  0  0  0  0  0  0  0  0  0  0  0
   -2.5210    3.6654    0.8861 H   0  0  0  0  0  0  0  0  0  0  0  0
   -2.5268    2.0433    0.1146 H   0  0  0  0  0  0  0  0  0  0  0  0
   -1.0740    3.0394    0.0336 H   0  0  0  0  0  0  0  0  0  0  0  0
   -0.5972    3.3986    5.5385 C   0  0  0  0  0  0  0  0  0  0  0  0
    0.4907    3.4777    5.7481 H   0  0  0  0  0  0  0  0  0  0  0  0
   -1.0755    3.0153    6.4623 H   0  0  0  0  0  0  0  0  0  0  0  0
   -0.9766    4.4212    5.3507 H   0  0  0  0  0  0  0  0  0  0  0  0
   -0.7584   -1.2683    3.6069 C   0  0  0  0  0  0  0  0  0  0  0  0
   -0.2897   -1.7517    2.7294 H   0  0  0  0  0  0  0  0  0  0  0  0
   -1.7548   -1.7333    3.7771 H   0  0  0  0  0  0  0  0  0  0  0  0
   -0.1317   -1.4993    4.4882 H   0  0  0  0  0  0  0  0  0  0  0  0
   -0.1896   -1.6317   -2.0032 C   0  0  0  0  0  0  0  0  0  0  0  0
   -0.7257   -1.2187   -3.2479 C   0  0  0  0  0  0  0  0  0  0  0  0
   -0.0294   -1.5676   -4.4133 C   0  0  0  0  0  0  0  0  0  0  0  0
   -0.4234   -1.2289   -5.3841 H   0  0  0  0  0  0  0  0  0  0  0  0
    1.1586   -2.3215   -4.3743 C   0  0  0  0  0  0  0  0  0  0  0  0
    1.6205   -2.7692   -3.1275 C   0  0  0  0  0  0  0  0  0  0  0  0
    2.5222   -3.3998   -3.0802 H   0  0  0  0  0  0  0  0  0  0  0  0
    0.9572   -2.4532   -1.9261 C   0  0  0  0  0  0  0  0  0  0  0  0
   -2.0203   -0.4535   -3.3339 C   0  0  0  0  0  0  0  0  0  0  0  0
   -2.1239    0.2656   -2.5001 H   0  0  0  0  0  0  0  0  0  0  0  0
   -2.8922   -1.1445   -3.3162 H   0  0  0  0  0  0  0  0  0  0  0  0
   -2.0740    0.1210   -4.2772 H   0  0  0  0  0  0  0  0  0  0  0  0
    1.9098   -2.6337   -5.6436 C   0  0  0  0  0  0  0  0  0  0  0  0
    2.4454   -1.7341   -6.0146 H   0  0  0  0  0  0  0  0  0  0  0  0
    1.2249   -2.9570   -6.4532 H   0  0  0  0  0  0  0  0  0  0  0  0
    2.6629   -3.4298   -5.4880 H   0  0  0  0  0  0  0  0  0  0  0  0
    1.4599   -3.0120   -0.6228 C   0  0  0  0  0  0  0  0  0  0  0  0
    1.9435   -3.9945   -0.7842 H   0  0  0  0  0  0  0  0  0  0  0  0
    0.6483   -3.1378    0.1188 H   0  0  0  0  0  0  0  0  0  0  0  0
    2.2011   -2.3427   -0.1379 H   0  0  0  0  0  0  0  0  0  0  0  0
  2  4  1  0  0  0  0
  2  1  1  0  0  0  0
  2  3  1  0  0  0  0
  4  6  1  0  0  0  0
  4  5  1  0  0  0  0
  6  1  1  0  0  0  0
  6  8  1  0  0  0  0
  7  6  1  0  0  0  0
  9  4  1  0  0  0  0
 10  2  1  0  0  0  0
  1 11  1  0  0  0  0
  1 12  1  0  0  0  0
 13 15  1  0  0  0  0
 14 15  1  0  0  0  0
 13 16  1  0  0  0  0
 16 17  1  0  0  0  0
 16 18  1  0  0  0  0
 14 19  1  0  0  0  0
 19 20  1  0  0  0  0
 19 21  1  0  0  0  0
 16 19  1  0  0  0  0
 22 23  2  0  0  0  0
 23 24  1  0  0  0  0
 24 25  1  0  0  0  0
 24 26  2  0  0  0  0
 26 27  1  0  0  0  0
 27 28  1  0  0  0  0
 22 29  1  0  0  0  0
 27 29  2  0  0  0  0
 13 22  1  0  0  0  0
 30 31  1  0  0  0  0
 30 32  1  0  0  0  0
 30 33  1  0  0  0  0
 23 30  1  0  0  0  0
 34 35  1  0  0  0  0
 34 36  1  0  0  0  0
 34 37  1  0  0  0  0
 26 34  1  0  0  0  0
 38 39  1  0  0  0  0
 38 40  1  0  0  0  0
 38 41  1  0  0  0  0
 29 38  1  0  0  0  0
 42 43  2  0  0  0  0
 43 44  1  0  0  0  0
 44 45  1  0  0  0  0
 44 46  2  0  0  0  0
 46 47  1  0  0  0  0
 47 48  1  0  0  0  0
 42 49  1  0  0  0  0
 47 49  2  0  0  0  0
 14 42  1  0  0  0  0
 50 51  1  0  0  0  0
 50 52  1  0  0  0  0
 50 53  1  0  0  0  0
 43 50  1  0  0  0  0
 54 55  1  0  0  0  0
 54 56  1  0  0  0  0
 54 57  1  0  0  0  0
 46 54  1  0  0  0  0
 58 59  1  0  0  0  0
 58 60  1  0  0  0  0
 58 61  1  0  0  0  0
 49 58  1  0  0  0  0
  1 15  1  0  0  0  0
M  END
>  <DFT-ENERGY>
-1728.27309442

$$$$
