
  CDK     08172404153D

 61 65  0  0  0  0  0  0  0  0999 V2000
    0.3819   -0.2941   -3.3743 H   0  0  0  0  0  0  0  0  0  0  0  0
    1.6035   -0.1470   -3.3762 C   0  0  0  0  0  0  0  0  0  0  0  0
    1.4474    0.1514   -4.4385 H   0  0  0  0  0  0  0  0  0  0  0  0
    1.7869    0.8399   -2.2792 C   0  0  0  0  0  0  0  0  0  0  0  0
    2.7605    0.8364   -1.7615 H   0  0  0  0  0  0  0  0  0  0  0  0
    1.3460    1.8393   -2.4333 H   0  0  0  0  0  0  0  0  0  0  0  0
    0.4781   -0.6520   -1.6397 Ru  0  0  0  0  0  0  0  0  0  0  0  0
    1.9996   -1.4965   -3.0010 C   0  0  0  0  0  0  0  0  0  0  0  0
    2.9439   -1.6561   -2.4673 H   0  0  0  0  0  0  0  0  0  0  0  0
    1.6650   -2.3266   -3.6455 H   0  0  0  0  0  0  0  0  0  0  0  0
    2.3531   -1.5546    0.1544 I   0  0  0  0  0  0  0  0  0  0  0  0
   -1.7677    0.3899   -2.8460 I   0  0  0  0  0  0  0  0  0  0  0  0
   -0.9463   -1.2742    1.0436 N   0  0  0  0  0  0  0  0  0  0  0  0
   -0.9452    0.8872    0.6256 N   0  0  0  0  0  0  0  0  0  0  0  0
   -0.4917   -0.3167    0.1712 C   0  0  0  0  0  0  0  0  0  0  0  0
   -1.9488   -0.7173    1.9778 C   0  0  0  0  0  0  0  0  0  0  0  0
   -1.8579   -1.1574    2.9847 H   0  0  0  0  0  0  0  0  0  0  0  0
   -2.9669   -0.9356    1.5862 H   0  0  0  0  0  0  0  0  0  0  0  0
   -1.6220    0.7680    1.9350 C   0  0  0  0  0  0  0  0  0  0  0  0
   -2.5162    1.4144    1.9768 H   0  0  0  0  0  0  0  0  0  0  0  0
   -0.9203    1.0778    2.7412 H   0  0  0  0  0  0  0  0  0  0  0  0
   -0.6467   -2.6726    1.0757 C   0  0  0  0  0  0  0  0  0  0  0  0
   -0.1010   -3.2178    2.2639 C   0  0  0  0  0  0  0  0  0  0  0  0
    0.1297   -4.6025    2.3189 C   0  0  0  0  0  0  0  0  0  0  0  0
    0.5650   -5.0257    3.2378 H   0  0  0  0  0  0  0  0  0  0  0  0
   -0.1328   -5.4499    1.2308 C   0  0  0  0  0  0  0  0  0  0  0  0
   -0.6225   -4.8677    0.0495 C   0  0  0  0  0  0  0  0  0  0  0  0
   -0.8047   -5.5018   -0.8323 H   0  0  0  0  0  0  0  0  0  0  0  0
   -0.8867   -3.4930   -0.0497 C   0  0  0  0  0  0  0  0  0  0  0  0
    0.3240   -2.3465    3.4180 C   0  0  0  0  0  0  0  0  0  0  0  0
    1.1354   -2.8382    3.9874 H   0  0  0  0  0  0  0  0  0  0  0  0
   -0.4998   -2.1498    4.1385 H   0  0  0  0  0  0  0  0  0  0  0  0
    0.7071   -1.3730    3.0525 H   0  0  0  0  0  0  0  0  0  0  0  0
    0.1036   -6.9359    1.3220 C   0  0  0  0  0  0  0  0  0  0  0  0
    0.5168   -7.3399    0.3766 H   0  0  0  0  0  0  0  0  0  0  0  0
   -0.8449   -7.4798    1.5207 H   0  0  0  0  0  0  0  0  0  0  0  0
    0.8057   -7.1867    2.1406 H   0  0  0  0  0  0  0  0  0  0  0  0
   -1.3255   -2.8998   -1.3500 C   0  0  0  0  0  0  0  0  0  0  0  0
   -0.4379   -2.4371   -1.8998 H   0  0  0  0  0  0  0  0  0  0  0  0
   -2.1028   -2.1223   -1.2531 H   0  0  0  0  0  0  0  0  0  0  0  0
   -1.6770   -3.6712   -2.0612 H   0  0  0  0  0  0  0  0  0  0  0  0
   -0.6722    2.1953    0.1017 C   0  0  0  0  0  0  0  0  0  0  0  0
    0.6222    2.7520    0.2367 C   0  0  0  0  0  0  0  0  0  0  0  0
    0.8519    4.0298   -0.3015 C   0  0  0  0  0  0  0  0  0  0  0  0
    1.8606    4.4626   -0.2108 H   0  0  0  0  0  0  0  0  0  0  0  0
   -0.1664    4.7748   -0.9215 C   0  0  0  0  0  0  0  0  0  0  0  0
   -1.4599    4.2298   -0.9457 C   0  0  0  0  0  0  0  0  0  0  0  0
   -2.2842    4.8133   -1.3845 H   0  0  0  0  0  0  0  0  0  0  0  0
   -1.7424    2.9539   -0.4280 C   0  0  0  0  0  0  0  0  0  0  0  0
    1.7136    2.0379    0.9820 C   0  0  0  0  0  0  0  0  0  0  0  0
    2.0693    1.1342    0.4484 H   0  0  0  0  0  0  0  0  0  0  0  0
    1.3619    1.6784    1.9710 H   0  0  0  0  0  0  0  0  0  0  0  0
    2.5767    2.7091    1.1505 H   0  0  0  0  0  0  0  0  0  0  0  0
    0.1231    6.1196   -1.5386 C   0  0  0  0  0  0  0  0  0  0  0  0
    0.4424    6.0071   -2.5970 H   0  0  0  0  0  0  0  0  0  0  0  0
    0.9400    6.6456   -1.0064 H   0  0  0  0  0  0  0  0  0  0  0  0
   -0.7715    6.7726   -1.5353 H   0  0  0  0  0  0  0  0  0  0  0  0
   -3.1699    2.4697   -0.3957 C   0  0  0  0  0  0  0  0  0  0  0  0
   -3.7256    2.8266   -1.2835 H   0  0  0  0  0  0  0  0  0  0  0  0
   -3.6948    2.8681    0.5012 H   0  0  0  0  0  0  0  0  0  0  0  0
   -3.2357    1.3671   -0.3833 H   0  0  0  0  0  0  0  0  0  0  0  0
  1  2  1  0  0  0  0
  1  7  1  0  0  0  0
  2  3  1  0  0  0  0
  2  4  1  0  0  0  0
  4  5  1  0  0  0  0
  6  4  1  0  0  0  0
  7  8  1  0  0  0  0
  7  4  1  0  0  0  0
  8  2  1  0  0  0  0
  8  9  1  0  0  0  0
 10  8  1  0  0  0  0
  7 11  1  0  0  0  0
  7 12  1  0  0  0  0
 13 15  1  0  0  0  0
 14 15  1  0  0  0  0
 13 16  1  0  0  0  0
 16 17  1  0  0  0  0
 16 18  1  0  0  0  0
 14 19  1  0  0  0  0
 19 20  1  0  0  0  0
 19 21  1  0  0  0  0
 16 19  1  0  0  0  0
 22 23  2  0  0  0  0
 23 24  1  0  0  0  0
 24 25  1  0  0  0  0
 24 26  2  0  0  0  0
 26 27  1  0  0  0  0
 27 28  1  0  0  0  0
 22 29  1  0  0  0  0
 27 29  2  0  0  0  0
 13 22  1  0  0  0  0
 30 31  1  0  0  0  0
 30 32  1  0  0  0  0
 30 33  1  0  0  0  0
 23 30  1  0  0  0  0
 34 35  1  0  0  0  0
 34 36  1  0  0  0  0
 34 37  1  0  0  0  0
 26 34  1  0  0  0  0
 38 39  1  0  0  0  0
 38 40  1  0  0  0  0
 38 41  1  0  0  0  0
 29 38  1  0  0  0  0
 42 43  2  0  0  0  0
 43 44  1  0  0  0  0
 44 45  1  0  0  0  0
 44 46  2  0  0  0  0
 46 47  1  0  0  0  0
 47 48  1  0  0  0  0
 42 49  1  0  0  0  0
 47 49  2  0  0  0  0
 14 42  1  0  0  0  0
 50 51  1  0  0  0  0
 50 52  1  0  0  0  0
 50 53  1  0  0  0  0
 43 50  1  0  0  0  0
 54 55  1  0  0  0  0
 54 56  1  0  0  0  0
 54 57  1  0  0  0  0
 46 54  1  0  0  0  0
 58 59  1  0  0  0  0
 58 60  1  0  0  0  0
 58 61  1  0  0  0  0
 49 58  1  0  0  0  0
  7 15  1  0  0  0  0
M  END
>  <DFT-ENERGY>
-1728.23265947

$$$$
