
  CDK     08132417213D

 55 58  0  0  0  0  0  0  0  0999 V2000
    1.7628   -1.0704   -0.2593 Ru  0  0  0  0  0  0  0  0  0  0  0  0
    3.2730   -0.8523   -1.4865 C   0  0  0  0  0  0  0  0  0  0  0  0
    3.0860   -1.1908   -2.5213 H   0  0  0  0  0  0  0  0  0  0  0  0
    3.7947   -2.0050   -0.5377 C   0  0  0  0  0  0  0  0  0  0  0  0
    3.9329   -2.9051   -1.1633 H   0  0  0  0  0  0  0  0  0  0  0  0
    2.8506   -2.4119    0.6655 C   0  0  0  0  0  0  0  0  0  0  0  0
    3.2433   -2.1083    1.6521 H   0  0  0  0  0  0  0  0  0  0  0  0
    2.4755   -3.4483    0.5893 H   0  0  0  0  0  0  0  0  0  0  0  0
    4.7241   -1.6235   -0.0775 H   0  0  0  0  0  0  0  0  0  0  0  0
    3.8350    0.0925   -1.3783 H   0  0  0  0  0  0  0  0  0  0  0  0
    0.8260   -2.7431   -1.7043 Cl  0  0  0  0  0  0  0  0  0  0  0  0
    2.6967    0.6231    1.1582 Cl  0  0  0  0  0  0  0  0  0  0  0  0
    0.0588   -0.1185    0.0293 C   0  0  0  0  0  0  0  0  0  0  0  0
   -0.8286   -0.2292    1.0480 N   0  0  0  0  0  0  0  0  0  0  0  0
   -1.7276    0.9797    1.0829 C   0  0  0  0  0  0  0  0  0  0  0  0
   -1.6902    1.3706   -0.4467 C   0  0  0  0  0  0  0  0  0  0  0  0
   -0.3027    0.9067   -0.7679 N   0  0  0  0  0  0  0  0  0  0  0  0
   -0.7667   -1.2889    1.9958 C   0  0  0  0  0  0  0  0  0  0  0  0
   -0.5745   -3.4471    3.7962 C   0  0  0  0  0  0  0  0  0  0  0  0
   -0.8724   -1.0644    3.3817 C   0  0  0  0  0  0  0  0  0  0  0  0
   -0.5768   -2.5998    1.5129 C   0  0  0  0  0  0  0  0  0  0  0  0
   -0.4624   -3.6655    2.4151 C   0  0  0  0  0  0  0  0  0  0  0  0
   -0.7884   -2.1444    4.2713 C   0  0  0  0  0  0  0  0  0  0  0  0
   -0.3013   -4.6803    2.0232 H   0  0  0  0  0  0  0  0  0  0  0  0
   -0.8694   -1.9564    5.3515 H   0  0  0  0  0  0  0  0  0  0  0  0
    0.4425    1.2346   -1.9462 C   0  0  0  0  0  0  0  0  0  0  0  0
    1.9797    1.8440   -4.2020 C   0  0  0  0  0  0  0  0  0  0  0  0
    0.3444    0.4261   -3.0928 C   0  0  0  0  0  0  0  0  0  0  0  0
    1.3183    2.3335   -1.9149 C   0  0  0  0  0  0  0  0  0  0  0  0
    2.0835    2.6383   -3.0482 C   0  0  0  0  0  0  0  0  0  0  0  0
    1.1165    0.7378   -4.2211 C   0  0  0  0  0  0  0  0  0  0  0  0
   -0.2901   -0.4694   -3.0699 H   0  0  0  0  0  0  0  0  0  0  0  0
    1.4227    2.9056   -0.9838 H   0  0  0  0  0  0  0  0  0  0  0  0
    2.7782    3.4898   -3.0235 H   0  0  0  0  0  0  0  0  0  0  0  0
    1.0531    0.0993   -5.1135 H   0  0  0  0  0  0  0  0  0  0  0  0
    2.5880    2.0810   -5.0870 H   0  0  0  0  0  0  0  0  0  0  0  0
   -0.5135   -2.7787    0.4286 H   0  0  0  0  0  0  0  0  0  0  0  0
   -0.9886   -0.0478    3.7741 H   0  0  0  0  0  0  0  0  0  0  0  0
   -0.4971   -4.2871    4.5009 H   0  0  0  0  0  0  0  0  0  0  0  0
   -1.0655    2.0645    1.9504 C   0  0  0  0  0  0  0  0  0  0  0  0
   -0.0289    2.2608    1.6131 H   0  0  0  0  0  0  0  0  0  0  0  0
   -1.0170    1.7424    3.0062 H   0  0  0  0  0  0  0  0  0  0  0  0
   -1.6508    3.0035    1.9201 H   0  0  0  0  0  0  0  0  0  0  0  0
   -3.1244    0.6342    1.5897 C   0  0  0  0  0  0  0  0  0  0  0  0
   -3.7974    1.5031    1.4471 H   0  0  0  0  0  0  0  0  0  0  0  0
   -3.1037    0.4008    2.6707 H   0  0  0  0  0  0  0  0  0  0  0  0
   -3.5543   -0.2374    1.0639 H   0  0  0  0  0  0  0  0  0  0  0  0
   -1.8552    2.8607   -0.7300 C   0  0  0  0  0  0  0  0  0  0  0  0
   -1.8013    3.0427   -1.8209 H   0  0  0  0  0  0  0  0  0  0  0  0
   -1.0742    3.4724   -0.2450 H   0  0  0  0  0  0  0  0  0  0  0  0
   -2.8479    3.2063   -0.3792 H   0  0  0  0  0  0  0  0  0  0  0  0
   -2.6768    0.5557   -1.2983 C   0  0  0  0  0  0  0  0  0  0  0  0
   -2.5753   -0.5292   -1.1015 H   0  0  0  0  0  0  0  0  0  0  0  0
   -2.4673    0.7320   -2.3713 H   0  0  0  0  0  0  0  0  0  0  0  0
   -3.7234    0.8608   -1.1039 H   0  0  0  0  0  0  0  0  0  0  0  0
  2  4  1  0  0  0  0
  2  1  1  0  0  0  0
  2  3  1  0  0  0  0
  4  6  1  0  0  0  0
  4  5  1  0  0  0  0
  6  1  1  0  0  0  0
  6  8  1  0  0  0  0
  7  6  1  0  0  0  0
  9  4  1  0  0  0  0
 10  2  1  0  0  0  0
  1 11  1  0  0  0  0
  1 12  1  0  0  0  0
 13 14  1  0  0  0  0
 13 17  1  0  0  0  0
 14 15  1  0  0  0  0
 14 18  1  0  0  0  0
 15 40  1  0  0  0  0
 15 44  1  0  0  0  0
 16 17  1  0  0  0  0
 15 16  1  0  0  0  0
 16 48  1  0  0  0  0
 16 52  1  0  0  0  0
 17 26  1  0  0  0  0
 18 21  2  0  0  0  0
 18 20  1  0  0  0  0
 19 22  2  0  0  0  0
 19 23  1  0  0  0  0
 19 39  1  0  0  0  0
 20 23  2  0  0  0  0
 20 38  1  0  0  0  0
 21 22  1  0  0  0  0
 21 37  1  0  0  0  0
 22 24  1  0  0  0  0
 23 25  1  0  0  0  0
 26 29  2  0  0  0  0
 26 28  1  0  0  0  0
 27 30  2  0  0  0  0
 27 31  1  0  0  0  0
 27 36  1  0  0  0  0
 28 31  2  0  0  0  0
 28 32  1  0  0  0  0
 29 30  1  0  0  0  0
 29 33  1  0  0  0  0
 30 34  1  0  0  0  0
 31 35  1  0  0  0  0
 40 41  1  0  0  0  0
 40 42  1  0  0  0  0
 40 43  1  0  0  0  0
 44 45  1  0  0  0  0
 44 46  1  0  0  0  0
 44 47  1  0  0  0  0
 48 49  1  0  0  0  0
 48 50  1  0  0  0  0
 48 51  1  0  0  0  0
 52 53  1  0  0  0  0
 52 54  1  0  0  0  0
 52 55  1  0  0  0  0
  1 13  1  0  0  0  0
M  END
>  <DFT-ENERGY>
-1978.3667248

$$$$
