
  CDK     08132407423D

 61 64  0  0  0  0  0  0  0  0999 V2000
   -0.6531    3.6126   -2.1439 C   0  0  0  0  0  0  0  0  0  0  0  0
    0.3825    3.6361   -2.5277 H   0  0  0  0  0  0  0  0  0  0  0  0
   -1.1918    4.5303   -2.4713 H   0  0  0  0  0  0  0  0  0  0  0  0
   -1.1757    2.7539   -2.6079 H   0  0  0  0  0  0  0  0  0  0  0  0
   -0.6949    3.5386   -0.6369 C   0  0  0  0  0  0  0  0  0  0  0  0
   -1.7035    3.5133   -0.1824 H   0  0  0  0  0  0  0  0  0  0  0  0
    0.3232    4.0731    0.1957 C   0  0  0  0  0  0  0  0  0  0  0  0
    1.2672    4.3559   -0.3028 H   0  0  0  0  0  0  0  0  0  0  0  0
   -0.0353    4.7783    1.4838 C   0  0  0  0  0  0  0  0  0  0  0  0
    0.8352    4.9219    2.1512 H   0  0  0  0  0  0  0  0  0  0  0  0
   -0.4364    5.7846    1.2346 H   0  0  0  0  0  0  0  0  0  0  0  0
   -0.8229    4.2181    2.0256 H   0  0  0  0  0  0  0  0  0  0  0  0
    1.3622    2.3204    1.3067 C   0  0  0  0  0  0  0  0  0  0  0  0
    1.0350    2.4533    2.3607 H   0  0  0  0  0  0  0  0  0  0  0  0
    2.4191    2.5616    1.0596 H   0  0  0  0  0  0  0  0  0  0  0  0
    0.2213    1.6702    0.0305 Ru  0  0  0  0  0  0  0  0  0  0  0  0
   -1.5796    1.5414    1.6372 Cl  0  0  0  0  0  0  0  0  0  0  0  0
    1.9880    1.7054   -1.6047 Cl  0  0  0  0  0  0  0  0  0  0  0  0
    0.1719   -0.3077    0.0476 C   0  0  0  0  0  0  0  0  0  0  0  0
    0.7563   -1.2121    0.8792 N   0  0  0  0  0  0  0  0  0  0  0  0
    0.0118   -2.5219    0.8310 C   0  0  0  0  0  0  0  0  0  0  0  0
   -0.5447   -2.4511   -0.6433 C   0  0  0  0  0  0  0  0  0  0  0  0
   -0.6892   -0.9666   -0.7606 N   0  0  0  0  0  0  0  0  0  0  0  0
    1.8724   -0.9220    1.7089 C   0  0  0  0  0  0  0  0  0  0  0  0
    4.1326   -0.3385    3.2841 C   0  0  0  0  0  0  0  0  0  0  0  0
    1.8681   -1.2120    3.0865 C   0  0  0  0  0  0  0  0  0  0  0  0
    3.0103   -0.3309    1.1226 C   0  0  0  0  0  0  0  0  0  0  0  0
    4.1265   -0.0315    1.9143 C   0  0  0  0  0  0  0  0  0  0  0  0
    3.0008   -0.9310    3.8639 C   0  0  0  0  0  0  0  0  0  0  0  0
    5.0035    0.4399    1.4474 H   0  0  0  0  0  0  0  0  0  0  0  0
    2.9865   -1.1610    4.9390 H   0  0  0  0  0  0  0  0  0  0  0  0
   -1.4385   -0.2860   -1.7717 C   0  0  0  0  0  0  0  0  0  0  0  0
   -2.9558    0.9922   -3.7495 C   0  0  0  0  0  0  0  0  0  0  0  0
   -0.8981   -0.1066   -3.0595 C   0  0  0  0  0  0  0  0  0  0  0  0
   -2.7159    0.2137   -1.4577 C   0  0  0  0  0  0  0  0  0  0  0  0
   -3.4711    0.8541   -2.4509 C   0  0  0  0  0  0  0  0  0  0  0  0
   -1.6668    0.5219   -4.0493 C   0  0  0  0  0  0  0  0  0  0  0  0
    0.1320   -0.4264   -3.2605 H   0  0  0  0  0  0  0  0  0  0  0  0
   -3.0811    0.1213   -0.4263 H   0  0  0  0  0  0  0  0  0  0  0  0
   -4.4666    1.2504   -2.2055 H   0  0  0  0  0  0  0  0  0  0  0  0
   -1.2460    0.6645   -5.0547 H   0  0  0  0  0  0  0  0  0  0  0  0
   -3.5527    1.4897   -4.5276 H   0  0  0  0  0  0  0  0  0  0  0  0
    2.9940   -0.0801    0.0513 H   0  0  0  0  0  0  0  0  0  0  0  0
    0.9709   -1.6298    3.5586 H   0  0  0  0  0  0  0  0  0  0  0  0
    5.0150   -0.1127    3.8999 H   0  0  0  0  0  0  0  0  0  0  0  0
   -1.1272   -2.4772    1.8646 C   0  0  0  0  0  0  0  0  0  0  0  0
   -1.7517   -1.5729    1.7261 H   0  0  0  0  0  0  0  0  0  0  0  0
   -0.7132   -2.4444    2.8890 H   0  0  0  0  0  0  0  0  0  0  0  0
   -1.7608   -3.3826    1.7953 H   0  0  0  0  0  0  0  0  0  0  0  0
    0.9339   -3.7116    1.0813 C   0  0  0  0  0  0  0  0  0  0  0  0
    0.3878   -4.6550    0.8808 H   0  0  0  0  0  0  0  0  0  0  0  0
    1.2646   -3.7329    2.1367 H   0  0  0  0  0  0  0  0  0  0  0  0
    1.8374   -3.6819    0.4460 H   0  0  0  0  0  0  0  0  0  0  0  0
   -1.8860   -3.1490   -0.8544 C   0  0  0  0  0  0  0  0  0  0  0  0
   -2.2029   -3.0412   -1.9102 H   0  0  0  0  0  0  0  0  0  0  0  0
   -2.6832   -2.7273   -0.2168 H   0  0  0  0  0  0  0  0  0  0  0  0
   -1.7920   -4.2323   -0.6401 H   0  0  0  0  0  0  0  0  0  0  0  0
    0.4749   -2.9347   -1.6870 C   0  0  0  0  0  0  0  0  0  0  0  0
    1.4491   -2.4239   -1.5610 H   0  0  0  0  0  0  0  0  0  0  0  0
    0.0969   -2.7163   -2.7042 H   0  0  0  0  0  0  0  0  0  0  0  0
    0.6304   -4.0289   -1.6168 H   0  0  0  0  0  0  0  0  0  0  0  0
  1  2  1  0  0  0  0
  1  5  1  0  0  0  0
  3  1  1  0  0  0  0
  4  1  1  0  0  0  0
  5  6  1  0  0  0  0
  5 16  1  0  0  0  0
  5  7  1  0  0  0  0
  7  9  1  0  0  0  0
  7  8  1  0  0  0  0
  9 10  1  0  0  0  0
 11  9  1  0  0  0  0
 12  9  1  0  0  0  0
 13 14  1  0  0  0  0
 13 15  1  0  0  0  0
 13  7  1  0  0  0  0
 16 13  1  0  0  0  0
 16 17  1  0  0  0  0
 16 18  1  0  0  0  0
 19 20  1  0  0  0  0
 19 23  1  0  0  0  0
 20 21  1  0  0  0  0
 20 24  1  0  0  0  0
 21 46  1  0  0  0  0
 21 50  1  0  0  0  0
 22 23  1  0  0  0  0
 21 22  1  0  0  0  0
 22 54  1  0  0  0  0
 22 58  1  0  0  0  0
 23 32  1  0  0  0  0
 24 27  2  0  0  0  0
 24 26  1  0  0  0  0
 25 28  2  0  0  0  0
 25 29  1  0  0  0  0
 25 45  1  0  0  0  0
 26 29  2  0  0  0  0
 26 44  1  0  0  0  0
 27 28  1  0  0  0  0
 27 43  1  0  0  0  0
 28 30  1  0  0  0  0
 29 31  1  0  0  0  0
 32 35  2  0  0  0  0
 32 34  1  0  0  0  0
 33 36  2  0  0  0  0
 33 37  1  0  0  0  0
 33 42  1  0  0  0  0
 34 37  2  0  0  0  0
 34 38  1  0  0  0  0
 35 36  1  0  0  0  0
 35 39  1  0  0  0  0
 36 40  1  0  0  0  0
 37 41  1  0  0  0  0
 46 47  1  0  0  0  0
 46 48  1  0  0  0  0
 46 49  1  0  0  0  0
 50 51  1  0  0  0  0
 50 52  1  0  0  0  0
 50 53  1  0  0  0  0
 54 55  1  0  0  0  0
 54 56  1  0  0  0  0
 54 57  1  0  0  0  0
 58 59  1  0  0  0  0
 58 60  1  0  0  0  0
 58 61  1  0  0  0  0
 16 19  1  0  0  0  0
M  END
>  <DFT-ENERGY>
-2056.8743586

$$$$
