
  CDK     08132414563D

 55 59  0  0  0  0  0  0  0  0999 V2000
    1.9794    0.7410   -2.6258 H   0  0  0  0  0  0  0  0  0  0  0  0
    3.1100    1.2250   -2.5859 C   0  0  0  0  0  0  0  0  0  0  0  0
    3.0960    1.2802   -3.6979 H   0  0  0  0  0  0  0  0  0  0  0  0
    2.9406    2.4019   -1.6866 C   0  0  0  0  0  0  0  0  0  0  0  0
    3.8158    2.7052   -1.0874 H   0  0  0  0  0  0  0  0  0  0  0  0
    2.3251    3.2332   -2.0672 H   0  0  0  0  0  0  0  0  0  0  0  0
    1.9292    0.7863   -0.8533 Ru  0  0  0  0  0  0  0  0  0  0  0  0
    3.7540    0.1354   -1.8526 C   0  0  0  0  0  0  0  0  0  0  0  0
    4.5988    0.3714   -1.1940 H   0  0  0  0  0  0  0  0  0  0  0  0
    3.7493   -0.8749   -2.2955 H   0  0  0  0  0  0  0  0  0  0  0  0
    3.4440    0.5195    1.0626 Cl  0  0  0  0  0  0  0  0  0  0  0  0
   -0.1137    1.6060   -1.8145 Cl  0  0  0  0  0  0  0  0  0  0  0  0
    0.8029    1.1710    0.8030 C   0  0  0  0  0  0  0  0  0  0  0  0
   -0.1569    0.2934    1.2231 N   0  0  0  0  0  0  0  0  0  0  0  0
   -1.0400    0.9370    2.2560 C   0  0  0  0  0  0  0  0  0  0  0  0
   -0.0194    1.9943    2.8403 C   0  0  0  0  0  0  0  0  0  0  0  0
    0.8077    2.2374    1.6133 N   0  0  0  0  0  0  0  0  0  0  0  0
   -0.4137   -0.8676    0.4620 C   0  0  0  0  0  0  0  0  0  0  0  0
   -0.8296   -3.0725   -1.2667 C   0  0  0  0  0  0  0  0  0  0  0  0
    0.6324   -1.3491   -0.3643 C   0  0  0  0  0  0  0  0  0  0  0  0
   -1.6600   -1.5216    0.4285 C   0  0  0  0  0  0  0  0  0  0  0  0
   -1.8563   -2.6153   -0.4277 C   0  0  0  0  0  0  0  0  0  0  0  0
    0.4180   -2.4356   -1.2223 C   0  0  0  0  0  0  0  0  0  0  0  0
   -2.8403   -3.1056   -0.4438 H   0  0  0  0  0  0  0  0  0  0  0  0
    1.2507   -2.7895   -1.8467 H   0  0  0  0  0  0  0  0  0  0  0  0
    1.5751    3.4193    1.3688 C   0  0  0  0  0  0  0  0  0  0  0  0
    2.9928    5.7839    0.8770 C   0  0  0  0  0  0  0  0  0  0  0  0
    1.1246    4.3099    0.3801 C   0  0  0  0  0  0  0  0  0  0  0  0
    2.7423    3.6938    2.0998 C   0  0  0  0  0  0  0  0  0  0  0  0
    3.4430    4.8842    1.8552 C   0  0  0  0  0  0  0  0  0  0  0  0
    1.8384    5.4903    0.1339 C   0  0  0  0  0  0  0  0  0  0  0  0
    0.2368    4.0420   -0.2093 H   0  0  0  0  0  0  0  0  0  0  0  0
    3.1188    2.9558    2.8173 H   0  0  0  0  0  0  0  0  0  0  0  0
    4.3602    5.0986    2.4222 H   0  0  0  0  0  0  0  0  0  0  0  0
    1.4905    6.1831   -0.6457 H   0  0  0  0  0  0  0  0  0  0  0  0
    3.5502    6.7122    0.6853 H   0  0  0  0  0  0  0  0  0  0  0  0
   -2.4981   -1.1712    1.0394 H   0  0  0  0  0  0  0  0  0  0  0  0
    1.7027   -1.0432   -0.1719 H   0  0  0  0  0  0  0  0  0  0  0  0
   -0.9981   -3.9246   -1.9398 H   0  0  0  0  0  0  0  0  0  0  0  0
   -1.5321   -0.0387    3.3255 C   0  0  0  0  0  0  0  0  0  0  0  0
   -0.7270   -0.7106    3.6737 H   0  0  0  0  0  0  0  0  0  0  0  0
   -2.3660   -0.6638    2.9598 H   0  0  0  0  0  0  0  0  0  0  0  0
   -1.9139    0.5332    4.1948 H   0  0  0  0  0  0  0  0  0  0  0  0
   -2.2095    1.6216    1.5284 C   0  0  0  0  0  0  0  0  0  0  0  0
   -2.8705    2.1387    2.2499 H   0  0  0  0  0  0  0  0  0  0  0  0
   -2.8170    0.8781    0.9818 H   0  0  0  0  0  0  0  0  0  0  0  0
   -1.8379    2.3507    0.7831 H   0  0  0  0  0  0  0  0  0  0  0  0
    0.8967    1.3972    3.9212 C   0  0  0  0  0  0  0  0  0  0  0  0
    1.6536    2.1477    4.2169 H   0  0  0  0  0  0  0  0  0  0  0  0
    1.4310    0.5039    3.5440 H   0  0  0  0  0  0  0  0  0  0  0  0
    0.3234    1.1303    4.8294 H   0  0  0  0  0  0  0  0  0  0  0  0
   -0.6687    3.2812    3.3405 C   0  0  0  0  0  0  0  0  0  0  0  0
   -1.2142    3.8166    2.5431 H   0  0  0  0  0  0  0  0  0  0  0  0
    0.1073    3.9641    3.7362 H   0  0  0  0  0  0  0  0  0  0  0  0
   -1.3731    3.0549    4.1656 H   0  0  0  0  0  0  0  0  0  0  0  0
  1  2  1  0  0  0  0
  1  7  1  0  0  0  0
  2  3  1  0  0  0  0
  2  4  1  0  0  0  0
  4  5  1  0  0  0  0
  4  6  1  0  0  0  0
  7  8  1  0  0  0  0
  4  7  1  0  0  0  0
  2  8  1  0  0  0  0
  8  9  1  0  0  0  0
  8 10  1  0  0  0  0
  7 11  1  0  0  0  0
  7 12  1  0  0  0  0
 13 14  1  0  0  0  0
 13 17  1  0  0  0  0
 14 15  1  0  0  0  0
 14 18  1  0  0  0  0
 15 40  1  0  0  0  0
 15 44  1  0  0  0  0
 16 17  1  0  0  0  0
 15 16  1  0  0  0  0
 16 48  1  0  0  0  0
 16 52  1  0  0  0  0
 17 26  1  0  0  0  0
 18 21  2  0  0  0  0
 18 20  1  0  0  0  0
 19 22  2  0  0  0  0
 19 23  1  0  0  0  0
 19 39  1  0  0  0  0
 20 23  2  0  0  0  0
 20 38  1  0  0  0  0
 21 22  1  0  0  0  0
 21 37  1  0  0  0  0
 22 24  1  0  0  0  0
 23 25  1  0  0  0  0
 26 29  2  0  0  0  0
 26 28  1  0  0  0  0
 27 30  2  0  0  0  0
 27 31  1  0  0  0  0
 27 36  1  0  0  0  0
 28 31  2  0  0  0  0
 28 32  1  0  0  0  0
 29 30  1  0  0  0  0
 29 33  1  0  0  0  0
 30 34  1  0  0  0  0
 31 35  1  0  0  0  0
 40 41  1  0  0  0  0
 40 42  1  0  0  0  0
 40 43  1  0  0  0  0
 44 45  1  0  0  0  0
 44 46  1  0  0  0  0
 44 47  1  0  0  0  0
 48 49  1  0  0  0  0
 48 50  1  0  0  0  0
 48 51  1  0  0  0  0
 52 53  1  0  0  0  0
 52 54  1  0  0  0  0
 52 55  1  0  0  0  0
  7 13  1  0  0  0  0
M  END
>  <DFT-ENERGY>
-1978.3323539

$$$$
