SIMesBenzyl-3_A2
  CDK     08122417133D

 69 73  0  0  0  0  0  0  0  0999 V2000
    0.7986   -0.2634   -0.3505 Ru  0  0  0  0  0  0  0  0  0  0  0  0
    2.5764   -0.2634   -1.7397 O   0  0  0  0  0  0  0  0  0  0  0  0
    2.0088    0.6699    0.6536 C   0  0  0  0  0  0  0  0  0  0  0  0
    1.7760    0.9628    1.6763 H   0  0  0  0  0  0  0  0  0  0  0  0
    2.8119   -1.0386   -2.9655 C   0  0  0  0  0  0  0  0  0  0  0  0
    3.2189   -0.3378   -3.7249 H   0  0  0  0  0  0  0  0  0  0  0  0
    1.3918   -1.4860   -3.2833 C   0  0  0  0  0  0  0  0  0  0  0  0
    1.3296   -1.9926   -4.2503 H   0  0  0  0  0  0  0  0  0  0  0  0
    1.0156   -2.1828   -2.5071 H   0  0  0  0  0  0  0  0  0  0  0  0
    0.7071   -0.6143   -3.3035 H   0  0  0  0  0  0  0  0  0  0  0  0
    3.7520   -2.1821   -2.6310 C   0  0  0  0  0  0  0  0  0  0  0  0
    3.7475   -2.9561   -3.4051 H   0  0  0  0  0  0  0  0  0  0  0  0
    4.7855   -1.8527   -2.4821 H   0  0  0  0  0  0  0  0  0  0  0  0
    3.4345   -2.6663   -1.6850 H   0  0  0  0  0  0  0  0  0  0  0  0
    3.5686    0.5350   -1.2347 C   0  0  0  0  0  0  0  0  0  0  0  0
    4.7377    0.8837   -1.8877 C   0  0  0  0  0  0  0  0  0  0  0  0
    4.9570    0.5332   -2.8937 H   0  0  0  0  0  0  0  0  0  0  0  0
    5.6389    1.7148   -1.2302 C   0  0  0  0  0  0  0  0  0  0  0  0
    6.5617    2.0024   -1.7392 H   0  0  0  0  0  0  0  0  0  0  0  0
    5.3889    2.1864    0.0551 C   0  0  0  0  0  0  0  0  0  0  0  0
    6.1137    2.8312    0.5494 H   0  0  0  0  0  0  0  0  0  0  0  0
    4.2192    1.8261    0.6967 C   0  0  0  0  0  0  0  0  0  0  0  0
    4.0260    2.1807    1.7080 H   0  0  0  0  0  0  0  0  0  0  0  0
    3.2837    1.0107    0.0573 C   0  0  0  0  0  0  0  0  0  0  0  0
    1.4101   -2.4989    0.2209 Cl  0  0  0  0  0  0  0  0  0  0  0  0
   -0.0189    1.4309   -1.7004 Cl  0  0  0  0  0  0  0  0  0  0  0  0
   -0.8086   -0.2789    0.7827 C   0  0  0  0  0  0  0  0  0  0  0  0
   -1.1166    0.1792    2.0512 N   0  0  0  0  0  0  0  0  0  0  0  0
   -2.5239   -0.1460    2.4818 C   0  0  0  0  0  0  0  0  0  0  0  0
   -3.1016   -0.9040    1.2681 C   0  0  0  0  0  0  0  0  0  0  0  0
   -1.9589   -0.9043    0.2977 N   0  0  0  0  0  0  0  0  0  0  0  0
   -0.2894    0.9056    2.9771 C   0  0  0  0  0  0  0  0  0  0  0  0
    1.1280    2.3320    4.9232 C   0  0  0  0  0  0  0  0  0  0  0  0
   -0.2620    2.3195    2.9235 C   0  0  0  0  0  0  0  0  0  0  0  0
    0.4617    0.2003    3.9486 C   0  0  0  0  0  0  0  0  0  0  0  0
    1.1517    0.9288    4.9241 C   0  0  0  0  0  0  0  0  0  0  0  0
    0.4396    3.0187    3.9135 C   0  0  0  0  0  0  0  0  0  0  0  0
    1.7183    0.4001    5.6878 H   0  0  0  0  0  0  0  0  0  0  0  0
    0.4527    4.1064    3.8922 H   0  0  0  0  0  0  0  0  0  0  0  0
   -3.0793    0.7864    2.7055 H   0  0  0  0  0  0  0  0  0  0  0  0
   -2.5088   -0.7629    3.4019 H   0  0  0  0  0  0  0  0  0  0  0  0
   -3.3963   -1.9430    1.5161 H   0  0  0  0  0  0  0  0  0  0  0  0
   -3.9844   -0.3939    0.8296 H   0  0  0  0  0  0  0  0  0  0  0  0
    0.5484   -1.2871    3.9015 C   0  0  0  0  0  0  0  0  0  0  0  0
    0.8428   -1.6329    2.8860 H   0  0  0  0  0  0  0  0  0  0  0  0
   -0.4144   -1.7650    4.1249 H   0  0  0  0  0  0  0  0  0  0  0  0
    1.2897   -1.6974    4.5984 H   0  0  0  0  0  0  0  0  0  0  0  0
   -0.9315    3.0446    1.8059 C   0  0  0  0  0  0  0  0  0  0  0  0
   -0.7172    4.1204    1.8001 H   0  0  0  0  0  0  0  0  0  0  0  0
   -2.0230    2.9255    1.8317 H   0  0  0  0  0  0  0  0  0  0  0  0
   -0.5958    2.6475    0.8227 H   0  0  0  0  0  0  0  0  0  0  0  0
    1.8548    3.0830    5.9907 C   0  0  0  0  0  0  0  0  0  0  0  0
    1.4852    2.8118    6.9905 H   0  0  0  0  0  0  0  0  0  0  0  0
    1.7511    4.1717    5.8940 H   0  0  0  0  0  0  0  0  0  0  0  0
    2.9315    2.8589    5.9730 H   0  0  0  0  0  0  0  0  0  0  0  0
   -2.1223   -1.5286   -1.0349 C   0  0  0  0  0  0  0  0  0  0  0  0
   -2.0457   -2.6375   -0.9229 H   0  0  0  0  0  0  0  0  0  0  0  0
   -1.2772   -1.2213   -1.7135 H   0  0  0  0  0  0  0  0  0  0  0  0
   -3.4307   -1.1236   -1.6787 C   0  0  0  0  0  0  0  0  0  0  0  0
   -5.8324   -0.3688   -2.9009 C   0  0  0  0  0  0  0  0  0  0  0  0
   -4.4940   -2.0333   -1.7552 C   0  0  0  0  0  0  0  0  0  0  0  0
   -3.5713    0.1658   -2.2131 C   0  0  0  0  0  0  0  0  0  0  0  0
   -4.7713    0.5399   -2.8221 C   0  0  0  0  0  0  0  0  0  0  0  0
   -5.6920   -1.6539   -2.3682 C   0  0  0  0  0  0  0  0  0  0  0  0
   -4.3902   -3.0358   -1.3445 H   0  0  0  0  0  0  0  0  0  0  0  0
   -2.7362    0.8730   -2.1523 H   0  0  0  0  0  0  0  0  0  0  0  0
   -4.8775    1.5405   -3.2395 H   0  0  0  0  0  0  0  0  0  0  0  0
   -6.5160   -2.3626   -2.4324 H   0  0  0  0  0  0  0  0  0  0  0  0
   -6.7652   -0.0761   -3.3794 H   0  0  0  0  0  0  0  0  0  0  0  0
  1  2  1  0  0  0  0
  1  3  2  0  0  0  0
  3  4  1  0  0  0  0
  2  5  1  0  0  0  0
  5  6  1  0  0  0  0
  5  7  1  0  0  0  0
  7  8  1  0  0  0  0
  7  9  1  0  0  0  0
  7 10  1  0  0  0  0
  5 11  1  0  0  0  0
 11 12  1  0  0  0  0
 11 13  1  0  0  0  0
 11 14  1  0  0  0  0
  2 15  1  0  0  0  0
 15 24  1  0  0  0  0
 15 16  2  0  0  0  0
 16 17  1  0  0  0  0
 16 18  1  0  0  0  0
 18 19  1  0  0  0  0
 18 20  2  0  0  0  0
 20 21  1  0  0  0  0
 20 22  1  0  0  0  0
 22 24  2  0  0  0  0
 22 23  1  0  0  0  0
  3 24  1  0  0  0  0
  1 25  1  0  0  0  0
  1 26  1  0  0  0  0
 27 28  1  0  0  0  0
 27 31  1  0  0  0  0
 28 29  1  0  0  0  0
 28 32  1  0  0  0  0
 29 40  1  0  0  0  0
 29 41  1  0  0  0  0
 30 31  1  0  0  0  0
 29 30  1  0  0  0  0
 30 42  1  0  0  0  0
 30 43  1  0  0  0  0
 31 56  1  0  0  0  0
 32 35  2  0  0  0  0
 32 34  1  0  0  0  0
 33 36  2  0  0  0  0
 33 37  1  0  0  0  0
 33 52  1  0  0  0  0
 34 37  2  0  0  0  0
 34 48  1  0  0  0  0
 35 36  1  0  0  0  0
 35 44  1  0  0  0  0
 36 38  1  0  0  0  0
 37 39  1  0  0  0  0
 44 45  1  0  0  0  0
 44 46  1  0  0  0  0
 44 47  1  0  0  0  0
 48 49  1  0  0  0  0
 48 50  1  0  0  0  0
 48 51  1  0  0  0  0
 52 53  1  0  0  0  0
 52 54  1  0  0  0  0
 52 55  1  0  0  0  0
 56 57  1  0  0  0  0
 56 58  1  0  0  0  0
 56 59  1  0  0  0  0
 59 62  2  0  0  0  0
 59 61  1  0  0  0  0
 60 63  2  0  0  0  0
 60 64  1  0  0  0  0
 60 69  1  0  0  0  0
 61 64  2  0  0  0  0
 61 65  1  0  0  0  0
 62 63  1  0  0  0  0
 62 66  1  0  0  0  0
 63 67  1  0  0  0  0
 64 68  1  0  0  0  0
  1 27  1  0  0  0  0
M  END
> <FrozenCore-PM6_ENERGY>
82.202

> <RMSD_CONF_CG-CS>
0.327084

> <RMSD_CONF_GO-CS>
0.000000

> <UID>


> <DESCRIPTOR_DEFINITION_1>
desc1=( echo "1 * ( e( $hartree_to_kcalmol * ( ( $freeEnergyZ - $freeEnergyD ) - ( $freeEnergyX + 2*$G_Ethene - $freeEnergyD - 2*$G_Propene ) - $DDG_reference_HGII ) / $kT ) ) " | bc -l )

> <DESCRIPTOR_DEFINITION_2>
desc1=( echo "1 * ( e( $hartree_to_kcalmol * ( ( $freeEnergyZ - $freeEnergyD ) - ( $freeEnergyX + 2*$G_Ethene - $freeEnergyD - 2*$G_Propene ) - $DDG_reference_HGII ) / $kT ) ) " | bc -l )

> <DESCRIPTOR_DEFINITION_3>
desc1=( echo "1 * ( e( $hartree_to_kcalmol * ( ( $freeEnergyZ - $freeEnergyD ) - ( $freeEnergyX + 2*$G_Ethene - $freeEnergyD - 2*$G_Propene ) - $DDG_reference_HGII ) / $kT ) ) " | bc -l )

> <WEIGHT_DEFINITION_1>
w1=$( echo "1 / ( 1 + e( $hartree_to_kcalmol * ( ( ( $freeEnergyX + 2*$G_Ethene - $freeEnergyD - 2*$G_Propene ) ) - ( $DG_referenceProductionBarrier + $magnitude4 ) ) / $kT ) )" | bc -l )

> <WEIGHT_DEFINITION_2>
w1=$( echo "1 / ( 1 + e( $hartree_to_kcalmol * ( ( ( $freeEnergyX + 2*$G_Ethene - $freeEnergyD - 2*$G_Propene ) ) - ( $DG_referenceProductionBarrier + $magnitude4 ) ) / $kT ) )" | bc -l )

> <WEIGHT_DEFINITION_3>
w1=$( echo "1 / ( 1 + e( $hartree_to_kcalmol * ( ( ( $freeEnergyX + 2*$G_Ethene - $freeEnergyD - 2*$G_Propene ) ) - ( $DG_referenceProductionBarrier + $magnitude4 ) ) / $kT ) )" | bc -l )

> <WEIGHT_DEFINITION_4>
w1=$( echo "1 / ( 1 + e( $hartree_to_kcalmol * ( ( ( $freeEnergyX + 2*$G_Ethene - $freeEnergyD - 2*$G_Propene ) ) - ( $DG_referenceProductionBarrier + $magnitude4 ) ) / $kT ) )" | bc -l )

> <CALCULATION_OF_OVERALL_FITNESS>
fitness=$( echo "( $desc1 + $desc2 + $desc3 ) * ( $w1 * $w2 * $w3 * $w4 )" | bc -l )

> <freeEnergyA>
-2323.60658549

> <freeEnergyF>
-2323.59238558

> <freeEnergyE>
-2323.60658549

> <freeEnergyC>
-1978.34577632

> <freeEnergyL>
-845.741172032

> <freeEnergyX>
-2056.87743159

> <freeEnergyZ>
-1978.32632062

> <freeEnergyD>
-1978.36860797

> <G_Propene>
-117.738020895

> <G_Ethene>
-78.4716324751

> <G_HoveydaProd>
-502.204109499

> <G_SIMes>
-924.27249048

> <G_HG_RuCl2_SIMes>
-2402.13728523

> <DG_referenceProductionBarrier>
0.01468968

> <DG_referencePrecursorStabilityHII>
-0.0052201621

> <DG_referencePrecursorStabilityHI>
0.0117775312

> <DDG_referencePrecursorStability>
.0169976933

> <DG_referenceSynt>
0.0226072217

> <hartree_to_kcalmol>
627.49467516

> <boltzmann_constant>
0.0000000000000000000000138066

> <avogadro_number>
602214000000000000000000

> <jmol_to_kcalmol>
0.00023901

> <temp>
313.15

> <kT>
.6223089948281258706000000000

> <magnitude1>
1.43290809

> <magnitude2>
2.86581618

> <magnitude3>
4.29872427

> <magnitude4>
5.73163236

> <DFT_IDENTIFIER>
1723529207646

> <DFT_MACHINE>
158.39.114.73

> <XTB_IDENTIFIER>
NREC

> <XTB_MACHINE>
NREC

> <DESCRIPTOR_1>
.01965080602491699096

> <DESCRIPTOR_2>
11.504569074190145832

> <DESCRIPTOR_3>
0.0000000001

> <WEIGHT_1>
.99945515174582258268

> <WEIGHT_2>
.99999932860899907701

> <WEIGHT_3>
.99999999999325375990

> <WEIGHT_4>
.99993951795872801223

> <FITNESS>
11.51723656800198938367

$$$$
