
  CDK     08132409233D

 49 53  0  0  0  0  0  0  0  0999 V2000
    0.3231   -3.3217   -0.6514 H   0  0  0  0  0  0  0  0  0  0  0  0
    1.5448   -3.3030   -0.5059 C   0  0  0  0  0  0  0  0  0  0  0  0
    1.5196   -4.4118   -0.4113 H   0  0  0  0  0  0  0  0  0  0  0  0
    1.6914   -2.3738    0.6556 C   0  0  0  0  0  0  0  0  0  0  0  0
    2.6289   -1.7959    0.7227 H   0  0  0  0  0  0  0  0  0  0  0  0
    1.2849   -2.7188    1.6223 H   0  0  0  0  0  0  0  0  0  0  0  0
    0.3343   -1.5480   -0.6553 Ru  0  0  0  0  0  0  0  0  0  0  0  0
    1.8664   -2.6195   -1.7612 C   0  0  0  0  0  0  0  0  0  0  0  0
    2.7632   -1.9900   -1.8115 H   0  0  0  0  0  0  0  0  0  0  0  0
    1.5475   -3.0901   -2.7063 H   0  0  0  0  0  0  0  0  0  0  0  0
    1.8746    0.2612   -1.2396 Cl  0  0  0  0  0  0  0  0  0  0  0  0
   -1.5972   -2.5810    0.3505 Cl  0  0  0  0  0  0  0  0  0  0  0  0
   -0.6006    0.1696   -0.0713 C   0  0  0  0  0  0  0  0  0  0  0  0
   -0.7915    0.6766    1.1595 N   0  0  0  0  0  0  0  0  0  0  0  0
   -1.7488    1.8035    1.1453 C   0  0  0  0  0  0  0  0  0  0  0  0
   -1.8690    2.1282   -0.3598 C   0  0  0  0  0  0  0  0  0  0  0  0
   -1.2453    0.9430   -0.9779 N   0  0  0  0  0  0  0  0  0  0  0  0
   -2.7120    1.4776    1.5927 H   0  0  0  0  0  0  0  0  0  0  0  0
   -1.3151    3.0505   -0.6277 H   0  0  0  0  0  0  0  0  0  0  0  0
   -1.2475    0.5653   -2.3530 C   0  0  0  0  0  0  0  0  0  0  0  0
   -1.1102   -0.3758   -4.9882 C   0  0  0  0  0  0  0  0  0  0  0  0
   -0.7745    1.4375   -3.3612 C   0  0  0  0  0  0  0  0  0  0  0  0
   -1.6331   -0.7575   -2.6535 C   0  0  0  0  0  0  0  0  0  0  0  0
   -1.5474   -1.2327   -3.9710 C   0  0  0  0  0  0  0  0  0  0  0  0
   -0.7376    0.9408   -4.6767 C   0  0  0  0  0  0  0  0  0  0  0  0
   -1.8423   -2.2679   -4.1934 H   0  0  0  0  0  0  0  0  0  0  0  0
   -0.3617    1.6016   -5.4726 H   0  0  0  0  0  0  0  0  0  0  0  0
   -0.2273    0.1660    2.3764 C   0  0  0  0  0  0  0  0  0  0  0  0
    0.8410   -0.8197    4.7571 C   0  0  0  0  0  0  0  0  0  0  0  0
   -0.9326   -0.8008    3.1074 C   0  0  0  0  0  0  0  0  0  0  0  0
    1.0125    0.6784    2.8229 C   0  0  0  0  0  0  0  0  0  0  0  0
    1.5300    0.1573    4.0242 C   0  0  0  0  0  0  0  0  0  0  0  0
   -0.3962   -1.2986    4.3024 C   0  0  0  0  0  0  0  0  0  0  0  0
    2.4988    0.5325    4.3868 H   0  0  0  0  0  0  0  0  0  0  0  0
   -0.9412   -2.0666    4.8691 H   0  0  0  0  0  0  0  0  0  0  0  0
    1.7537    1.7217    2.0337 C   0  0  0  0  0  0  0  0  0  0  0  0
    2.6826    2.0239    2.5529 H   0  0  0  0  0  0  0  0  0  0  0  0
    1.1379    2.6336    1.8827 H   0  0  0  0  0  0  0  0  0  0  0  0
    2.0121    1.3414    1.0219 H   0  0  0  0  0  0  0  0  0  0  0  0
   -0.2279    2.8023   -3.0391 C   0  0  0  0  0  0  0  0  0  0  0  0
    0.3009    3.2256   -3.9134 H   0  0  0  0  0  0  0  0  0  0  0  0
    0.4961    2.7269   -2.2018 H   0  0  0  0  0  0  0  0  0  0  0  0
   -1.0210    3.5242   -2.7506 H   0  0  0  0  0  0  0  0  0  0  0  0
   -2.9181    2.2350   -0.6951 H   0  0  0  0  0  0  0  0  0  0  0  0
   -1.3577    2.6525    1.7380 H   0  0  0  0  0  0  0  0  0  0  0  0
   -1.8800   -1.1820    2.7066 H   0  0  0  0  0  0  0  0  0  0  0  0
    1.2741   -1.2075    5.6907 H   0  0  0  0  0  0  0  0  0  0  0  0
   -1.0464   -0.7307   -6.0267 H   0  0  0  0  0  0  0  0  0  0  0  0
   -2.0384   -1.3947   -1.8517 H   0  0  0  0  0  0  0  0  0  0  0  0
  1  2  1  0  0  0  0
  1  7  1  0  0  0  0
  2  3  1  0  0  0  0
  2  4  1  0  0  0  0
  4  5  1  0  0  0  0
  6  4  1  0  0  0  0
  7  8  1  0  0  0  0
  7  4  1  0  0  0  0
  8  2  1  0  0  0  0
  8  9  1  0  0  0  0
 10  8  1  0  0  0  0
  7 11  1  0  0  0  0
  7 12  1  0  0  0  0
 13 14  1  0  0  0  0
 13 17  1  0  0  0  0
 14 15  1  0  0  0  0
 14 28  1  0  0  0  0
 15 18  1  0  0  0  0
 15 16  1  0  0  0  0
 15 45  1  0  0  0  0
 16 19  1  0  0  0  0
 16 17  1  0  0  0  0
 16 44  1  0  0  0  0
 17 20  1  0  0  0  0
 20 23  2  0  0  0  0
 20 22  1  0  0  0  0
 21 24  2  0  0  0  0
 21 25  1  0  0  0  0
 21 48  1  0  0  0  0
 22 25  2  0  0  0  0
 22 40  1  0  0  0  0
 23 24  1  0  0  0  0
 23 49  1  0  0  0  0
 24 26  1  0  0  0  0
 25 27  1  0  0  0  0
 28 31  2  0  0  0  0
 28 30  1  0  0  0  0
 29 32  2  0  0  0  0
 29 33  1  0  0  0  0
 29 47  1  0  0  0  0
 30 33  2  0  0  0  0
 30 46  1  0  0  0  0
 31 32  1  0  0  0  0
 31 36  1  0  0  0  0
 32 34  1  0  0  0  0
 33 35  1  0  0  0  0
 36 37  1  0  0  0  0
 36 38  1  0  0  0  0
 36 39  1  0  0  0  0
 40 41  1  0  0  0  0
 40 42  1  0  0  0  0
 40 43  1  0  0  0  0
  7 13  1  0  0  0  0
M  END
>  <DFT-ENERGY>
-1899.8025466

$$$$
