
  CDK     08132408483D

 49 52  0  0  0  0  0  0  0  0999 V2000
    0.7401   -1.2434   -0.1272 Ru  0  0  0  0  0  0  0  0  0  0  0  0
    0.7107   -2.7982   -1.3167 C   0  0  0  0  0  0  0  0  0  0  0  0
    1.0536   -2.6055   -2.3490 H   0  0  0  0  0  0  0  0  0  0  0  0
    1.8861   -3.1709   -0.3244 C   0  0  0  0  0  0  0  0  0  0  0  0
    2.7990   -3.2642   -0.9399 H   0  0  0  0  0  0  0  0  0  0  0  0
    2.2151   -2.1220    0.8143 C   0  0  0  0  0  0  0  0  0  0  0  0
    1.9729   -2.4865    1.8286 H   0  0  0  0  0  0  0  0  0  0  0  0
    3.2029   -1.6429    0.6931 H   0  0  0  0  0  0  0  0  0  0  0  0
    1.5830   -4.1029    0.1859 H   0  0  0  0  0  0  0  0  0  0  0  0
   -0.1720   -3.4540   -1.2124 H   0  0  0  0  0  0  0  0  0  0  0  0
    2.2881   -0.1615   -1.6015 Cl  0  0  0  0  0  0  0  0  0  0  0  0
   -0.8168   -2.3100    1.3492 Cl  0  0  0  0  0  0  0  0  0  0  0  0
   -0.2642    0.4426    0.0455 C   0  0  0  0  0  0  0  0  0  0  0  0
   -1.1255    0.9295   -0.8743 N   0  0  0  0  0  0  0  0  0  0  0  0
   -1.8454    2.1050   -0.3404 C   0  0  0  0  0  0  0  0  0  0  0  0
   -0.9233    2.5373    0.8136 C   0  0  0  0  0  0  0  0  0  0  0  0
   -0.1947    1.2834    1.1004 N   0  0  0  0  0  0  0  0  0  0  0  0
   -1.9671    2.8849   -1.1153 H   0  0  0  0  0  0  0  0  0  0  0  0
   -1.4769    2.8904    1.7038 H   0  0  0  0  0  0  0  0  0  0  0  0
    0.8376    1.1568    2.0892 C   0  0  0  0  0  0  0  0  0  0  0  0
    2.8647    0.8503    3.9741 C   0  0  0  0  0  0  0  0  0  0  0  0
    0.4776    0.8306    3.4161 C   0  0  0  0  0  0  0  0  0  0  0  0
    2.1779    1.3103    1.6970 C   0  0  0  0  0  0  0  0  0  0  0  0
    3.1975    1.1521    2.6457 C   0  0  0  0  0  0  0  0  0  0  0  0
    1.5217    0.6911    4.3487 C   0  0  0  0  0  0  0  0  0  0  0  0
    4.2482    1.2608    2.3420 H   0  0  0  0  0  0  0  0  0  0  0  0
    1.2705    0.4298    5.3876 H   0  0  0  0  0  0  0  0  0  0  0  0
   -1.5975    0.1165   -1.9587 C   0  0  0  0  0  0  0  0  0  0  0  0
   -2.4675   -1.5164   -4.0402 C   0  0  0  0  0  0  0  0  0  0  0  0
   -2.3441   -1.0378   -1.6687 C   0  0  0  0  0  0  0  0  0  0  0  0
   -1.2524    0.4732   -3.2817 C   0  0  0  0  0  0  0  0  0  0  0  0
   -1.7132   -0.3650   -4.3135 C   0  0  0  0  0  0  0  0  0  0  0  0
   -2.7783   -1.8609   -2.7168 C   0  0  0  0  0  0  0  0  0  0  0  0
   -1.4527   -0.1153   -5.3529 H   0  0  0  0  0  0  0  0  0  0  0  0
   -3.3536   -2.7707   -2.4949 H   0  0  0  0  0  0  0  0  0  0  0  0
   -0.3582    1.6512   -3.5532 C   0  0  0  0  0  0  0  0  0  0  0  0
   -0.1958    1.7841   -4.6391 H   0  0  0  0  0  0  0  0  0  0  0  0
    0.6257    1.4879   -3.0622 H   0  0  0  0  0  0  0  0  0  0  0  0
   -0.7762    2.5982   -3.1531 H   0  0  0  0  0  0  0  0  0  0  0  0
   -0.9563    0.5619    3.7805 C   0  0  0  0  0  0  0  0  0  0  0  0
   -1.6150    1.4292    3.5666 H   0  0  0  0  0  0  0  0  0  0  0  0
   -1.0539    0.3191    4.8551 H   0  0  0  0  0  0  0  0  0  0  0  0
   -1.3332   -0.2973    3.1845 H   0  0  0  0  0  0  0  0  0  0  0  0
   -0.2031    3.3259    0.5033 H   0  0  0  0  0  0  0  0  0  0  0  0
   -2.8517    1.7965    0.0187 H   0  0  0  0  0  0  0  0  0  0  0  0
   -2.5422   -1.2989   -0.6189 H   0  0  0  0  0  0  0  0  0  0  0  0
   -2.8048   -2.1549   -4.8697 H   0  0  0  0  0  0  0  0  0  0  0  0
    3.6573    0.7259    4.7263 H   0  0  0  0  0  0  0  0  0  0  0  0
    2.4080    1.5136    0.6409 H   0  0  0  0  0  0  0  0  0  0  0  0
  2  4  1  0  0  0  0
  2  1  1  0  0  0  0
  2  3  1  0  0  0  0
  4  6  1  0  0  0  0
  4  5  1  0  0  0  0
  6  1  1  0  0  0  0
  6  8  1  0  0  0  0
  7  6  1  0  0  0  0
  9  4  1  0  0  0  0
 10  2  1  0  0  0  0
  1 11  1  0  0  0  0
  1 12  1  0  0  0  0
 13 14  1  0  0  0  0
 13 17  1  0  0  0  0
 14 15  1  0  0  0  0
 15 18  1  0  0  0  0
 15 16  1  0  0  0  0
 16 19  1  0  0  0  0
 16 17  1  0  0  0  0
 20 23  2  0  0  0  0
 23 24  1  0  0  0  0
 21 24  2  0  0  0  0
 21 25  1  0  0  0  0
 22 25  2  0  0  0  0
 20 22  1  0  0  0  0
 24 26  1  0  0  0  0
 25 27  1  0  0  0  0
 17 20  1  0  0  0  0
 28 31  2  0  0  0  0
 31 32  1  0  0  0  0
 29 32  2  0  0  0  0
 29 33  1  0  0  0  0
 30 33  2  0  0  0  0
 28 30  1  0  0  0  0
 32 34  1  0  0  0  0
 33 35  1  0  0  0  0
 14 28  1  0  0  0  0
 36 37  1  0  0  0  0
 36 38  1  0  0  0  0
 36 39  1  0  0  0  0
 31 36  1  0  0  0  0
 40 41  1  0  0  0  0
 40 42  1  0  0  0  0
 40 43  1  0  0  0  0
 22 40  1  0  0  0  0
 16 44  1  0  0  0  0
 15 45  1  0  0  0  0
 30 46  1  0  0  0  0
 29 47  1  0  0  0  0
 21 48  1  0  0  0  0
 23 49  1  0  0  0  0
  1 13  1  0  0  0  0
M  END
>  <DFT-ENERGY>
-1899.84286567

$$$$
