
  CDK     08132412463D

 64 67  0  0  0  0  0  0  0  0999 V2000
    0.5074    0.0680   -3.9708 H   0  0  0  0  0  0  0  0  0  0  0  0
    1.7094   -0.1104   -4.1637 C   0  0  0  0  0  0  0  0  0  0  0  0
    1.5126   -0.3332   -5.2326 H   0  0  0  0  0  0  0  0  0  0  0  0
    2.2074    1.2082   -3.6985 C   0  0  0  0  0  0  0  0  0  0  0  0
    3.2200    1.2802   -3.2758 H   0  0  0  0  0  0  0  0  0  0  0  0
    1.8494    2.0882   -4.2594 H   0  0  0  0  0  0  0  0  0  0  0  0
    0.8552    0.4684   -2.2782 Ru  0  0  0  0  0  0  0  0  0  0  0  0
    1.8888   -1.1636   -3.1282 C   0  0  0  0  0  0  0  0  0  0  0  0
    2.8849   -1.2947   -2.6826 H   0  0  0  0  0  0  0  0  0  0  0  0
    1.3013   -2.0885   -3.2641 H   0  0  0  0  0  0  0  0  0  0  0  0
    2.8218    0.4701   -0.8690 Cl  0  0  0  0  0  0  0  0  0  0  0  0
   -1.0654    1.5564   -3.2444 Cl  0  0  0  0  0  0  0  0  0  0  0  0
    0.0163    0.9545   -0.5114 C   0  0  0  0  0  0  0  0  0  0  0  0
   -0.0139    2.3326    0.1552 C   0  0  0  0  0  0  0  0  0  0  0  0
   -0.8056    0.1283    0.1368 N   0  0  0  0  0  0  0  0  0  0  0  0
   -0.8950   -1.3215   -0.0115 C   0  0  0  0  0  0  0  0  0  0  0  0
   -1.3531   -4.0968    0.0935 C   0  0  0  0  0  0  0  0  0  0  0  0
   -0.0336   -2.1460    0.7713 C   0  0  0  0  0  0  0  0  0  0  0  0
   -1.9157   -1.8963   -0.8222 C   0  0  0  0  0  0  0  0  0  0  0  0
   -2.1252   -3.2861   -0.7401 C   0  0  0  0  0  0  0  0  0  0  0  0
   -0.3015   -3.5277    0.8136 C   0  0  0  0  0  0  0  0  0  0  0  0
   -2.9140   -3.7379   -1.3578 H   0  0  0  0  0  0  0  0  0  0  0  0
    0.3480   -4.1712    1.4235 H   0  0  0  0  0  0  0  0  0  0  0  0
   -1.5499   -5.1768    0.1572 H   0  0  0  0  0  0  0  0  0  0  0  0
   -1.6837    0.8220    1.1886 C   0  0  0  0  0  0  0  0  0  0  0  0
   -1.3753    2.3007    0.8857 C   0  0  0  0  0  0  0  0  0  0  0  0
   -1.3714    2.9135    1.8073 H   0  0  0  0  0  0  0  0  0  0  0  0
   -2.1546    2.7026    0.2083 H   0  0  0  0  0  0  0  0  0  0  0  0
   -1.2947    0.3810    2.6022 C   0  0  0  0  0  0  0  0  0  0  0  0
   -0.2423    0.6106    2.8432 H   0  0  0  0  0  0  0  0  0  0  0  0
   -1.4599   -0.7059    2.7310 H   0  0  0  0  0  0  0  0  0  0  0  0
   -1.9384    0.9096    3.3327 H   0  0  0  0  0  0  0  0  0  0  0  0
   -3.1610    0.5041    0.9611 C   0  0  0  0  0  0  0  0  0  0  0  0
   -3.7572    1.0676    1.7066 H   0  0  0  0  0  0  0  0  0  0  0  0
   -3.3754   -0.5732    1.0979 H   0  0  0  0  0  0  0  0  0  0  0  0
   -3.4912    0.8149   -0.0462 H   0  0  0  0  0  0  0  0  0  0  0  0
    1.1612    2.4311    1.1624 C   0  0  0  0  0  0  0  0  0  0  0  0
    1.2134    1.5673    1.8507 H   0  0  0  0  0  0  0  0  0  0  0  0
    1.0213    3.3517    1.7656 H   0  0  0  0  0  0  0  0  0  0  0  0
    2.1255    2.4812    0.6278 H   0  0  0  0  0  0  0  0  0  0  0  0
    0.1064    3.5109   -0.8184 C   0  0  0  0  0  0  0  0  0  0  0  0
   -0.7286    3.5332   -1.5405 H   0  0  0  0  0  0  0  0  0  0  0  0
    1.0499    3.4370   -1.3944 H   0  0  0  0  0  0  0  0  0  0  0  0
    0.1212    4.4590   -0.2432 H   0  0  0  0  0  0  0  0  0  0  0  0
    1.2262   -1.6634    1.4830 C   0  0  0  0  0  0  0  0  0  0  0  0
    1.3283   -0.5736    1.3215 H   0  0  0  0  0  0  0  0  0  0  0  0
   -2.7111   -1.1314   -1.8721 C   0  0  0  0  0  0  0  0  0  0  0  0
   -2.4736   -0.0543   -1.7853 H   0  0  0  0  0  0  0  0  0  0  0  0
   -2.2370   -1.5821   -3.2686 C   0  0  0  0  0  0  0  0  0  0  0  0
   -2.6910   -0.9466   -4.0539 H   0  0  0  0  0  0  0  0  0  0  0  0
   -2.5139   -2.6395   -3.4602 H   0  0  0  0  0  0  0  0  0  0  0  0
   -1.1365   -1.4900   -3.3548 H   0  0  0  0  0  0  0  0  0  0  0  0
   -4.2327   -1.3232   -1.7621 C   0  0  0  0  0  0  0  0  0  0  0  0
   -4.7456   -0.6933   -2.5165 H   0  0  0  0  0  0  0  0  0  0  0  0
   -4.6262   -1.0508   -0.7645 H   0  0  0  0  0  0  0  0  0  0  0  0
   -4.5269   -2.3742   -1.9611 H   0  0  0  0  0  0  0  0  0  0  0  0
    2.4539   -2.3339    0.8332 C   0  0  0  0  0  0  0  0  0  0  0  0
    2.4556   -2.1882   -0.2616 H   0  0  0  0  0  0  0  0  0  0  0  0
    2.4709   -3.4219    1.0520 H   0  0  0  0  0  0  0  0  0  0  0  0
    3.3867   -1.8868    1.2299 H   0  0  0  0  0  0  0  0  0  0  0  0
    1.2321   -1.9605    2.9930 C   0  0  0  0  0  0  0  0  0  0  0  0
    0.3746   -1.5111    3.5267 H   0  0  0  0  0  0  0  0  0  0  0  0
    2.1633   -1.5684    3.4497 H   0  0  0  0  0  0  0  0  0  0  0  0
    1.2094   -3.0530    3.1855 H   0  0  0  0  0  0  0  0  0  0  0  0
  1  2  1  0  0  0  0
  1  7  1  0  0  0  0
  2  3  1  0  0  0  0
  2  4  1  0  0  0  0
  4  5  1  0  0  0  0
  6  4  1  0  0  0  0
  7  8  1  0  0  0  0
  7  4  1  0  0  0  0
  8  2  1  0  0  0  0
  8  9  1  0  0  0  0
 10  8  1  0  0  0  0
  7 11  1  0  0  0  0
  7 12  1  0  0  0  0
 13 14  1  0  0  0  0
 13 15  1  0  0  0  0
 16 19  2  0  0  0  0
 19 20  1  0  0  0  0
 17 20  2  0  0  0  0
 17 21  1  0  0  0  0
 18 21  2  0  0  0  0
 16 18  1  0  0  0  0
 20 22  1  0  0  0  0
 21 23  1  0  0  0  0
 17 24  1  0  0  0  0
 15 16  1  0  0  0  0
 15 25  1  0  0  0  0
 14 26  1  0  0  0  0
 25 26  1  0  0  0  0
 26 27  1  0  0  0  0
 26 28  1  0  0  0  0
 29 30  1  0  0  0  0
 29 31  1  0  0  0  0
 29 32  1  0  0  0  0
 25 29  1  0  0  0  0
 33 34  1  0  0  0  0
 33 35  1  0  0  0  0
 33 36  1  0  0  0  0
 25 33  1  0  0  0  0
 37 38  1  0  0  0  0
 37 39  1  0  0  0  0
 37 40  1  0  0  0  0
 14 37  1  0  0  0  0
 41 42  1  0  0  0  0
 41 43  1  0  0  0  0
 41 44  1  0  0  0  0
 14 41  1  0  0  0  0
 45 46  1  0  0  0  0
 18 45  1  0  0  0  0
 47 48  1  0  0  0  0
 19 47  1  0  0  0  0
 49 50  1  0  0  0  0
 49 51  1  0  0  0  0
 49 52  1  0  0  0  0
 47 49  1  0  0  0  0
 53 54  1  0  0  0  0
 53 55  1  0  0  0  0
 53 56  1  0  0  0  0
 47 53  1  0  0  0  0
 57 58  1  0  0  0  0
 57 59  1  0  0  0  0
 57 60  1  0  0  0  0
 45 57  1  0  0  0  0
 61 62  1  0  0  0  0
 61 63  1  0  0  0  0
 61 64  1  0  0  0  0
 45 61  1  0  0  0  0
  7 13  1  0  0  0  0
M  END
>  <DFT-ENERGY>
-1967.04972623

$$$$
