DIPP5CAAC_A1
  CDK     07312414093D

 78 81  0  0  0  0  0  0  0  0999 V2000
    0.4394    0.7612   -1.4482 Ru  0  0  0  0  0  0  0  0  0  0  0  0
    2.2172    0.7612   -2.8374 O   0  0  0  0  0  0  0  0  0  0  0  0
    1.6496   -0.1721   -0.4441 C   0  0  0  0  0  0  0  0  0  0  0  0
    1.4168   -0.4650    0.5786 H   0  0  0  0  0  0  0  0  0  0  0  0
    2.4527    1.5364   -4.0632 C   0  0  0  0  0  0  0  0  0  0  0  0
    2.8666    0.8394   -4.8223 H   0  0  0  0  0  0  0  0  0  0  0  0
    1.0303    1.9730   -4.3873 C   0  0  0  0  0  0  0  0  0  0  0  0
    0.9655    2.4670   -5.3602 H   0  0  0  0  0  0  0  0  0  0  0  0
    0.6446    2.6732   -3.6203 H   0  0  0  0  0  0  0  0  0  0  0  0
    0.3490    1.0979   -4.3961 H   0  0  0  0  0  0  0  0  0  0  0  0
    3.3855    2.6871   -3.7306 C   0  0  0  0  0  0  0  0  0  0  0  0
    3.3820    3.4548   -4.5109 H   0  0  0  0  0  0  0  0  0  0  0  0
    4.4194    2.3618   -3.5748 H   0  0  0  0  0  0  0  0  0  0  0  0
    3.0622    3.1757   -2.7902 H   0  0  0  0  0  0  0  0  0  0  0  0
    3.2094   -0.0372   -2.3324 C   0  0  0  0  0  0  0  0  0  0  0  0
    4.3785   -0.3860   -2.9854 C   0  0  0  0  0  0  0  0  0  0  0  0
    4.5974   -0.0351   -3.9912 H   0  0  0  0  0  0  0  0  0  0  0  0
    5.2797   -1.2170   -2.3279 C   0  0  0  0  0  0  0  0  0  0  0  0
    6.2024   -1.5043   -2.8367 H   0  0  0  0  0  0  0  0  0  0  0  0
    5.0297   -1.6886   -1.0426 C   0  0  0  0  0  0  0  0  0  0  0  0
    5.7547   -2.3330   -0.5484 H   0  0  0  0  0  0  0  0  0  0  0  0
    3.8600   -1.3283   -0.4010 C   0  0  0  0  0  0  0  0  0  0  0  0
    3.6668   -1.6829    0.6103 H   0  0  0  0  0  0  0  0  0  0  0  0
    2.9245   -0.5129   -1.0404 C   0  0  0  0  0  0  0  0  0  0  0  0
    1.0379    2.9491   -0.8890 Cl  0  0  0  0  0  0  0  0  0  0  0  0
   -0.3880   -0.9537   -2.8145 Cl  0  0  0  0  0  0  0  0  0  0  0  0
   -1.1481    0.6671   -0.3347 C   0  0  0  0  0  0  0  0  0  0  0  0
   -2.3776    1.4536   -0.8723 C   0  0  0  0  0  0  0  0  0  0  0  0
   -1.5410    0.0086    0.7883 N   0  0  0  0  0  0  0  0  0  0  0  0
   -0.7071   -0.8066    1.6592 C   0  0  0  0  0  0  0  0  0  0  0  0
    0.7155   -2.4039    3.4694 C   0  0  0  0  0  0  0  0  0  0  0  0
   -0.0897   -0.2097    2.7887 C   0  0  0  0  0  0  0  0  0  0  0  0
   -0.5459   -2.1881    1.3975 C   0  0  0  0  0  0  0  0  0  0  0  0
    0.1532   -2.9727    2.3292 C   0  0  0  0  0  0  0  0  0  0  0  0
    0.6126   -1.0290    3.6830 C   0  0  0  0  0  0  0  0  0  0  0  0
    0.2652   -4.0419    2.1471 H   0  0  0  0  0  0  0  0  0  0  0  0
    1.0928   -0.5844    4.5549 H   0  0  0  0  0  0  0  0  0  0  0  0
    1.2489   -3.0279    4.1853 H   0  0  0  0  0  0  0  0  0  0  0  0
   -3.0261    0.1539    1.1510 C   0  0  0  0  0  0  0  0  0  0  0  0
   -3.4800    1.2998    0.2152 C   0  0  0  0  0  0  0  0  0  0  0  0
   -3.6077    2.2420    0.7760 H   0  0  0  0  0  0  0  0  0  0  0  0
   -4.4640    1.0926   -0.2343 H   0  0  0  0  0  0  0  0  0  0  0  0
   -3.2161    0.5161    2.6245 C   0  0  0  0  0  0  0  0  0  0  0  0
   -2.6892    1.4440    2.8902 H   0  0  0  0  0  0  0  0  0  0  0  0
   -2.8399   -0.2704    3.2920 H   0  0  0  0  0  0  0  0  0  0  0  0
   -4.2767    0.6608    2.8585 H   0  0  0  0  0  0  0  0  0  0  0  0
   -3.7703   -1.1474    0.8355 C   0  0  0  0  0  0  0  0  0  0  0  0
   -4.8388   -1.0558    1.0572 H   0  0  0  0  0  0  0  0  0  0  0  0
   -3.3865   -1.9948    1.4249 H   0  0  0  0  0  0  0  0  0  0  0  0
   -3.6762   -1.4250   -0.2230 H   0  0  0  0  0  0  0  0  0  0  0  0
   -2.0264    2.9299   -1.0721 C   0  0  0  0  0  0  0  0  0  0  0  0
   -1.5143    3.3542   -0.1959 H   0  0  0  0  0  0  0  0  0  0  0  0
   -2.9191    3.5341   -1.2639 H   0  0  0  0  0  0  0  0  0  0  0  0
   -1.3534    3.0766   -1.9343 H   0  0  0  0  0  0  0  0  0  0  0  0
   -2.8307    0.8404   -2.2027 C   0  0  0  0  0  0  0  0  0  0  0  0
   -2.9445   -0.2505   -2.1367 H   0  0  0  0  0  0  0  0  0  0  0  0
   -2.0990    1.0326   -3.0064 H   0  0  0  0  0  0  0  0  0  0  0  0
   -3.7853    1.2594   -2.5358 H   0  0  0  0  0  0  0  0  0  0  0  0
   -0.0995    1.2924    3.0262 C   0  0  0  0  0  0  0  0  0  0  0  0
   -0.9382    1.7604    2.4429 H   0  0  0  0  0  0  0  0  0  0  0  0
   -1.0412   -2.8548    0.1243 C   0  0  0  0  0  0  0  0  0  0  0  0
   -1.5786   -2.1025   -0.5158 H   0  0  0  0  0  0  0  0  0  0  0  0
    0.1519   -3.3561   -0.6993 C   0  0  0  0  0  0  0  0  0  0  0  0
   -0.1828   -3.7332   -1.6749 H   0  0  0  0  0  0  0  0  0  0  0  0
    0.7127   -4.1491   -0.2005 H   0  0  0  0  0  0  0  0  0  0  0  0
    0.8478   -2.5301   -0.9240 H   0  0  0  0  0  0  0  0  0  0  0  0
   -2.0114   -3.9985    0.4498 C   0  0  0  0  0  0  0  0  0  0  0  0
   -2.4533   -4.4037   -0.4678 H   0  0  0  0  0  0  0  0  0  0  0  0
   -2.8301   -3.6548    1.0955 H   0  0  0  0  0  0  0  0  0  0  0  0
   -1.5122   -4.8284    0.9609 H   0  0  0  0  0  0  0  0  0  0  0  0
    1.2154    1.8847    2.5084 C   0  0  0  0  0  0  0  0  0  0  0  0
    1.3306    1.7067    1.4235 H   0  0  0  0  0  0  0  0  0  0  0  0
    2.0909    1.4607    3.0083 H   0  0  0  0  0  0  0  0  0  0  0  0
    1.2467    2.9718    2.6446 H   0  0  0  0  0  0  0  0  0  0  0  0
   -0.3234    1.6420    4.5039 C   0  0  0  0  0  0  0  0  0  0  0  0
   -1.1949    1.1227    4.9153 H   0  0  0  0  0  0  0  0  0  0  0  0
   -0.4837    2.7192    4.6276 H   0  0  0  0  0  0  0  0  0  0  0  0
    0.5412    1.3769    5.1236 H   0  0  0  0  0  0  0  0  0  0  0  0
  2  1  1  0  0  0  0
  3  1  2  0  0  0  0
  4  3  1  0  0  0  0
  5  2  1  0  0  0  0
  6  5  1  0  0  0  0
  7  5  1  0  0  0  0
  8  7  1  0  0  0  0
  9  7  1  0  0  0  0
 10  7  1  0  0  0  0
 11  5  1  0  0  0  0
 12 11  1  0  0  0  0
 13 11  1  0  0  0  0
 14 11  1  0  0  0  0
 15  2  1  0  0  0  0
 15 24  1  0  0  0  0
 16 15  2  0  0  0  0
 17 16  1  0  0  0  0
 18 16  1  0  0  0  0
 19 18  1  0  0  0  0
 20 18  2  0  0  0  0
 21 20  1  0  0  0  0
 22 20  1  0  0  0  0
 22 24  2  0  0  0  0
 23 22  1  0  0  0  0
 24  3  1  0  0  0  0
  1 25  1  0  0  0  0
  1 26  1  0  0  0  0
 27 28  1  0  0  0  0
 27 29  1  0  0  0  0
 30 33  2  0  0  0  0
 33 34  1  0  0  0  0
 31 34  2  0  0  0  0
 31 35  1  0  0  0  0
 32 35  2  0  0  0  0
 30 32  1  0  0  0  0
 34 36  1  0  0  0  0
 35 37  1  0  0  0  0
 31 38  1  0  0  0  0
 29 30  1  0  0  0  0
 29 39  1  0  0  0  0
 28 40  1  0  0  0  0
 39 40  1  0  0  0  0
 40 41  1  0  0  0  0
 40 42  1  0  0  0  0
 43 44  1  0  0  0  0
 43 45  1  0  0  0  0
 43 46  1  0  0  0  0
 39 43  1  0  0  0  0
 47 48  1  0  0  0  0
 47 49  1  0  0  0  0
 47 50  1  0  0  0  0
 39 47  1  0  0  0  0
 51 52  1  0  0  0  0
 51 53  1  0  0  0  0
 51 54  1  0  0  0  0
 28 51  1  0  0  0  0
 55 56  1  0  0  0  0
 55 57  1  0  0  0  0
 55 58  1  0  0  0  0
 28 55  1  0  0  0  0
 59 60  1  0  0  0  0
 32 59  1  0  0  0  0
 61 62  1  0  0  0  0
 33 61  1  0  0  0  0
 63 64  1  0  0  0  0
 63 65  1  0  0  0  0
 63 66  1  0  0  0  0
 61 63  1  0  0  0  0
 67 68  1  0  0  0  0
 67 69  1  0  0  0  0
 67 70  1  0  0  0  0
 61 67  1  0  0  0  0
 71 72  1  0  0  0  0
 71 73  1  0  0  0  0
 71 74  1  0  0  0  0
 59 71  1  0  0  0  0
 75 76  1  0  0  0  0
 75 77  1  0  0  0  0
 75 78  1  0  0  0  0
 59 75  1  0  0  0  0
  1 27  1  0  0  0  0
M  END
> <FrozenCore-PM6_ENERGY>
-182.832

> <RMSD_CONF_CG-CS>
0.561400

> <RMSD_CONF_GO-CS>
0.000000

> <UID>


> <DESCRIPTOR_DEFINITION_1>
desc1=( echo "1 * ( e( $hartree_to_kcalmol * ( ( $freeEnergyZ - $freeEnergyD ) - ( $freeEnergyX + 2*$G_Ethene - $freeEnergyD - 2*$G_Propene ) - $DDG_reference_HGII ) / $kT ) ) " | bc -l )

> <DESCRIPTOR_DEFINITION_2>
desc1=( echo "1 * ( e( $hartree_to_kcalmol * ( ( $freeEnergyZ - $freeEnergyD ) - ( $freeEnergyX + 2*$G_Ethene - $freeEnergyD - 2*$G_Propene ) - $DDG_reference_HGII ) / $kT ) ) " | bc -l )

> <DESCRIPTOR_DEFINITION_3>
desc1=( echo "1 * ( e( $hartree_to_kcalmol * ( ( $freeEnergyZ - $freeEnergyD ) - ( $freeEnergyX + 2*$G_Ethene - $freeEnergyD - 2*$G_Propene ) - $DDG_reference_HGII ) / $kT ) ) " | bc -l )

> <WEIGHT_DEFINITION_1>
w1=$( echo "1 / ( 1 + e( $hartree_to_kcalmol * ( ( ( $freeEnergyX + 2*$G_Ethene - $freeEnergyD - 2*$G_Propene ) ) - ( $DG_referenceProductionBarrier + $magnitude4 ) ) / $kT ) )" | bc -l )

> <WEIGHT_DEFINITION_2>
w1=$( echo "1 / ( 1 + e( $hartree_to_kcalmol * ( ( ( $freeEnergyX + 2*$G_Ethene - $freeEnergyD - 2*$G_Propene ) ) - ( $DG_referenceProductionBarrier + $magnitude4 ) ) / $kT ) )" | bc -l )

> <WEIGHT_DEFINITION_3>
w1=$( echo "1 / ( 1 + e( $hartree_to_kcalmol * ( ( ( $freeEnergyX + 2*$G_Ethene - $freeEnergyD - 2*$G_Propene ) ) - ( $DG_referenceProductionBarrier + $magnitude4 ) ) / $kT ) )" | bc -l )

> <WEIGHT_DEFINITION_4>
w1=$( echo "1 / ( 1 + e( $hartree_to_kcalmol * ( ( ( $freeEnergyX + 2*$G_Ethene - $freeEnergyD - 2*$G_Propene ) ) - ( $DG_referenceProductionBarrier + $magnitude4 ) ) / $kT ) )" | bc -l )

> <CALCULATION_OF_OVERALL_FITNESS>
fitness=$( echo "( $desc1 + $desc2 + $desc3 ) * ( $w1 * $w2 * $w3 * $w4 )" | bc -l )

> <freeEnergyA>
-2312.34025849

> <freeEnergyF>
-2312.31264508

> <freeEnergyE>
-2312.34025849

> <freeEnergyC>
-1967.07542575

> <freeEnergyL>
-834.463813097

> <freeEnergyX>
-2045.60300537

> <freeEnergyZ>
-1967.0497253

> <freeEnergyD>
-1967.09670509

> <G_Propene>
-117.738020895

> <G_Ethene>
-78.4716324751

> <G_HoveydaProd>
-502.204109499

> <G_SIMes>
-924.27249048

> <G_HG_RuCl2_SIMes>
-2402.13728523

> <DG_referenceProductionBarrier>
0.01468968

> <DG_referencePrecursorStabilityHII>
-0.0052201621

> <DG_referencePrecursorStabilityHI>
0.0117775312

> <DDG_referencePrecursorStability>
.0169976933

> <DG_referenceSynt>
0.0226072217

> <hartree_to_kcalmol>
627.49467516

> <boltzmann_constant>
0.0000000000000000000000138066

> <avogadro_number>
602214000000000000000000

> <jmol_to_kcalmol>
0.00023901

> <temp>
313.15

> <kT>
.6223089948281258706000000000

> <magnitude1>
1.43290809

> <magnitude2>
2.86581618

> <magnitude3>
4.29872427

> <magnitude4>
5.73163236

> <DFT_IDENTIFIER>
1722479060510

> <DFT_MACHINE>
158.36.42.38

> <XTB_IDENTIFIER>
NREC

> <XTB_MACHINE>
NREC

> <DESCRIPTOR_1>
.17508882127788482404

> <DESCRIPTOR_2>
12.865667774079701832

> <DESCRIPTOR_3>
0.0000000001

> <WEIGHT_1>
.99310535223555970261

> <WEIGHT_2>
.99996119083074885560

> <WEIGHT_3>
.99999999999999990046

> <WEIGHT_4>
.99999999991914614457

> <FITNESS>
12.95034255956078718844

> <NAME>
H13

$$$$
