
  CDK     07302417213D

 67 69  0  0  0  0  0  0  0  0999 V2000
    1.0396    1.3510    0.4455 Ru  0  0  0  0  0  0  0  0  0  0  0  0
    2.1565    1.2235   -1.1707 C   0  0  0  0  0  0  0  0  0  0  0  0
    1.7629    1.6828   -2.0937 H   0  0  0  0  0  0  0  0  0  0  0  0
    3.0002    2.2255   -0.2854 C   0  0  0  0  0  0  0  0  0  0  0  0
    3.1546    3.1326   -0.8976 H   0  0  0  0  0  0  0  0  0  0  0  0
    2.3134    2.7164    1.0622 C   0  0  0  0  0  0  0  0  0  0  0  0
    2.9288    2.4675    1.9486 H   0  0  0  0  0  0  0  0  0  0  0  0
    1.9952    3.7759    1.0246 H   0  0  0  0  0  0  0  0  0  0  0  0
    3.9544    1.7373   -0.0192 H   0  0  0  0  0  0  0  0  0  0  0  0
    2.6688    0.2596   -1.3342 H   0  0  0  0  0  0  0  0  0  0  0  0
   -0.0664    3.0878   -0.4353 C   0  0  0  0  0  0  0  0  0  0  0  0
   -1.1632    2.8960   -0.4470 H   0  0  0  0  0  0  0  0  0  0  0  0
    0.0604    3.9023    0.3188 H   0  0  0  0  0  0  0  0  0  0  0  0
    0.3249    3.6474   -1.8047 C   0  0  0  0  0  0  0  0  0  0  0  0
    1.3918    3.9609   -1.8519 H   0  0  0  0  0  0  0  0  0  0  0  0
   -0.2662    4.5477   -2.0908 H   0  0  0  0  0  0  0  0  0  0  0  0
    0.1792    2.9086   -2.6233 H   0  0  0  0  0  0  0  0  0  0  0  0
    2.3454   -0.1286    1.4574 C   0  0  0  0  0  0  0  0  0  0  0  0
    2.9891    0.4536    2.1643 H   0  0  0  0  0  0  0  0  0  0  0  0
    1.7199   -0.7639    2.1205 H   0  0  0  0  0  0  0  0  0  0  0  0
    3.2601   -1.0522    0.6433 C   0  0  0  0  0  0  0  0  0  0  0  0
    2.7018   -1.6316   -0.1240 H   0  0  0  0  0  0  0  0  0  0  0  0
    3.8044   -1.7943    1.2725 H   0  0  0  0  0  0  0  0  0  0  0  0
    4.0496   -0.4931    0.0932 H   0  0  0  0  0  0  0  0  0  0  0  0
   -0.6545    0.6868    1.0600 C   0  0  0  0  0  0  0  0  0  0  0  0
   -1.4488   -0.1787    0.3919 N   0  0  0  0  0  0  0  0  0  0  0  0
   -2.7873   -0.4464    1.0300 C   0  0  0  0  0  0  0  0  0  0  0  0
   -2.8012    0.6492    2.1230 C   0  0  0  0  0  0  0  0  0  0  0  0
   -1.3288    1.0758    2.3790 C   0  0  0  0  0  0  0  0  0  0  0  0
   -3.2978    0.2975    3.0482 H   0  0  0  0  0  0  0  0  0  0  0  0
   -3.3675    1.5252    1.7489 H   0  0  0  0  0  0  0  0  0  0  0  0
   -0.9213   -0.8366   -0.7825 C   0  0  0  0  0  0  0  0  0  0  0  0
    0.3165   -2.0092   -3.0457 C   0  0  0  0  0  0  0  0  0  0  0  0
   -0.0981   -1.9849   -0.6204 C   0  0  0  0  0  0  0  0  0  0  0  0
   -1.1361   -0.2786   -2.0679 C   0  0  0  0  0  0  0  0  0  0  0  0
   -0.5081   -0.8834   -3.1735 C   0  0  0  0  0  0  0  0  0  0  0  0
    0.4997   -2.5464   -1.7602 C   0  0  0  0  0  0  0  0  0  0  0  0
   -0.6659   -0.4420   -4.1701 H   0  0  0  0  0  0  0  0  0  0  0  0
    1.1429   -3.4311   -1.6313 H   0  0  0  0  0  0  0  0  0  0  0  0
   -2.0102    0.9214   -2.3160 C   0  0  0  0  0  0  0  0  0  0  0  0
   -2.1164    1.5493   -1.4164 H   0  0  0  0  0  0  0  0  0  0  0  0
   -3.0230    0.6121   -2.6479 H   0  0  0  0  0  0  0  0  0  0  0  0
   -1.5808    1.5500   -3.1188 H   0  0  0  0  0  0  0  0  0  0  0  0
    0.1486   -2.6413    0.7131 C   0  0  0  0  0  0  0  0  0  0  0  0
    0.0617   -1.9279    1.5485 H   0  0  0  0  0  0  0  0  0  0  0  0
    1.1661   -3.0727    0.7452 H   0  0  0  0  0  0  0  0  0  0  0  0
   -0.5685   -3.4692    0.8878 H   0  0  0  0  0  0  0  0  0  0  0  0
    1.0074   -2.6182   -4.2392 C   0  0  0  0  0  0  0  0  0  0  0  0
    0.8167   -3.7090   -4.3037 H   0  0  0  0  0  0  0  0  0  0  0  0
    2.1077   -2.4882   -4.1690 H   0  0  0  0  0  0  0  0  0  0  0  0
    0.6725   -2.1538   -5.1862 H   0  0  0  0  0  0  0  0  0  0  0  0
   -0.6811    0.2729    3.5274 C   0  0  0  0  0  0  0  0  0  0  0  0
    0.3813    0.5584    3.6498 H   0  0  0  0  0  0  0  0  0  0  0  0
   -0.7111   -0.8189    3.3481 H   0  0  0  0  0  0  0  0  0  0  0  0
   -1.2169    0.4801    4.4768 H   0  0  0  0  0  0  0  0  0  0  0  0
   -1.2152    2.5745    2.6906 C   0  0  0  0  0  0  0  0  0  0  0  0
   -1.7574    2.8077    3.6300 H   0  0  0  0  0  0  0  0  0  0  0  0
   -1.6358    3.1905    1.8744 H   0  0  0  0  0  0  0  0  0  0  0  0
   -0.1552    2.8701    2.8221 H   0  0  0  0  0  0  0  0  0  0  0  0
   -3.9269   -0.2646    0.0213 C   0  0  0  0  0  0  0  0  0  0  0  0
   -4.8948   -0.4699    0.5207 H   0  0  0  0  0  0  0  0  0  0  0  0
   -3.8263   -0.9722   -0.8258 H   0  0  0  0  0  0  0  0  0  0  0  0
   -3.9558    0.7651   -0.3777 H   0  0  0  0  0  0  0  0  0  0  0  0
   -2.8681   -1.8699    1.6042 C   0  0  0  0  0  0  0  0  0  0  0  0
   -2.1015   -2.0556    2.3768 H   0  0  0  0  0  0  0  0  0  0  0  0
   -2.7481   -2.6236    0.8015 H   0  0  0  0  0  0  0  0  0  0  0  0
   -3.8646   -2.0228    2.0645 H   0  0  0  0  0  0  0  0  0  0  0  0
  2  4  1  0  0  0  0
  2  1  1  0  0  0  0
  2  3  1  0  0  0  0
  4  6  1  0  0  0  0
  4  5  1  0  0  0  0
  6  1  1  0  0  0  0
  6  8  1  0  0  0  0
  7  6  1  0  0  0  0
  9  4  1  0  0  0  0
 10  2  1  0  0  0  0
 11 12  1  0  0  0  0
 11 13  1  0  0  0  0
 14 15  1  0  0  0  0
 14 16  1  0  0  0  0
 14 17  1  0  0  0  0
 11 14  1  0  0  0  0
  1 11  1  0  0  0  0
 18 19  1  0  0  0  0
 18 20  1  0  0  0  0
 21 22  1  0  0  0  0
 21 23  1  0  0  0  0
 21 24  1  0  0  0  0
 18 21  1  0  0  0  0
  1 18  1  0  0  0  0
 25 26  1  0  0  0  0
 25 29  1  0  0  0  0
 26 27  1  0  0  0  0
 27 28  1  0  0  0  0
 28 30  1  0  0  0  0
 28 31  1  0  0  0  0
 28 29  1  0  0  0  0
 32 35  2  0  0  0  0
 35 36  1  0  0  0  0
 33 36  2  0  0  0  0
 33 37  1  0  0  0  0
 34 37  2  0  0  0  0
 32 34  1  0  0  0  0
 36 38  1  0  0  0  0
 37 39  1  0  0  0  0
 26 32  1  0  0  0  0
 40 41  1  0  0  0  0
 40 42  1  0  0  0  0
 40 43  1  0  0  0  0
 35 40  1  0  0  0  0
 44 45  1  0  0  0  0
 44 46  1  0  0  0  0
 44 47  1  0  0  0  0
 34 44  1  0  0  0  0
 48 49  1  0  0  0  0
 48 50  1  0  0  0  0
 48 51  1  0  0  0  0
 33 48  1  0  0  0  0
 52 53  1  0  0  0  0
 52 54  1  0  0  0  0
 52 55  1  0  0  0  0
 29 52  1  0  0  0  0
 56 57  1  0  0  0  0
 56 58  1  0  0  0  0
 56 59  1  0  0  0  0
 29 56  1  0  0  0  0
 60 61  1  0  0  0  0
 60 62  1  0  0  0  0
 60 63  1  0  0  0  0
 27 60  1  0  0  0  0
 64 65  1  0  0  0  0
 64 66  1  0  0  0  0
 64 67  1  0  0  0  0
 27 64  1  0  0  0  0
  1 25  1  0  0  0  0
M  END
>  <DFT-ENERGY>
-1087.34807604

$$$$
