
  CDK     07302402073D

 73 75  0  0  0  0  0  0  0  0999 V2000
   -1.1329    3.2612   -2.7474 C   0  0  0  0  0  0  0  0  0  0  0  0
   -0.0705    3.2531   -3.0464 H   0  0  0  0  0  0  0  0  0  0  0  0
   -1.6151    4.1613   -3.1911 H   0  0  0  0  0  0  0  0  0  0  0  0
   -1.6296    2.3820   -3.2060 H   0  0  0  0  0  0  0  0  0  0  0  0
   -1.3146    3.2972   -1.2485 C   0  0  0  0  0  0  0  0  0  0  0  0
   -2.3606    3.3920   -0.9172 H   0  0  0  0  0  0  0  0  0  0  0  0
   -0.3462    3.8063   -0.3476 C   0  0  0  0  0  0  0  0  0  0  0  0
    0.6618    3.9942   -0.7570 H   0  0  0  0  0  0  0  0  0  0  0  0
   -0.7566    4.6292    0.8490 C   0  0  0  0  0  0  0  0  0  0  0  0
    0.0463    4.7178    1.6046 H   0  0  0  0  0  0  0  0  0  0  0  0
   -1.0023    5.6562    0.5007 H   0  0  0  0  0  0  0  0  0  0  0  0
   -1.6586    4.2127    1.3351 H   0  0  0  0  0  0  0  0  0  0  0  0
    0.5203    2.0496    0.8970 C   0  0  0  0  0  0  0  0  0  0  0  0
    0.1624    2.3961    1.8946 H   0  0  0  0  0  0  0  0  0  0  0  0
    1.6194    2.1551    0.7298 H   0  0  0  0  0  0  0  0  0  0  0  0
   -0.6025    1.2954   -0.3445 Ru  0  0  0  0  0  0  0  0  0  0  0  0
   -2.3300    1.5475    1.1170 C   0  0  0  0  0  0  0  0  0  0  0  0
   -2.5227    0.5565    1.5772 H   0  0  0  0  0  0  0  0  0  0  0  0
   -1.9393    2.1626    1.9655 H   0  0  0  0  0  0  0  0  0  0  0  0
   -3.6616    2.1052    0.6715 C   0  0  0  0  0  0  0  0  0  0  0  0
   -3.6331    3.1932    0.4376 H   0  0  0  0  0  0  0  0  0  0  0  0
   -4.4683    1.9980    1.4360 H   0  0  0  0  0  0  0  0  0  0  0  0
   -4.0510    1.6125   -0.2503 H   0  0  0  0  0  0  0  0  0  0  0  0
    1.1790    1.3534   -1.6878 C   0  0  0  0  0  0  0  0  0  0  0  0
    1.4245    2.4263   -1.8758 H   0  0  0  0  0  0  0  0  0  0  0  0
    2.0236    0.9912   -1.0600 H   0  0  0  0  0  0  0  0  0  0  0  0
    1.1941    0.6195   -3.0083 C   0  0  0  0  0  0  0  0  0  0  0  0
    1.0550   -0.4771   -2.8784 H   0  0  0  0  0  0  0  0  0  0  0  0
    2.1460    0.7419   -3.5801 H   0  0  0  0  0  0  0  0  0  0  0  0
    0.3810    0.9498   -3.6916 H   0  0  0  0  0  0  0  0  0  0  0  0
   -0.6075   -0.6331   -0.2883 C   0  0  0  0  0  0  0  0  0  0  0  0
    0.2190   -1.5201    0.3360 N   0  0  0  0  0  0  0  0  0  0  0  0
   -0.1340   -2.9734    0.1287 C   0  0  0  0  0  0  0  0  0  0  0  0
   -1.0646   -2.8594   -1.0968 C   0  0  0  0  0  0  0  0  0  0  0  0
   -1.6808   -1.4415   -1.0533 C   0  0  0  0  0  0  0  0  0  0  0  0
   -1.8343   -3.6556   -1.1070 H   0  0  0  0  0  0  0  0  0  0  0  0
   -0.4545   -2.9650   -2.0168 H   0  0  0  0  0  0  0  0  0  0  0  0
    1.2609   -1.1059    1.2415 C   0  0  0  0  0  0  0  0  0  0  0  0
    3.2969   -0.2292    3.0133 C   0  0  0  0  0  0  0  0  0  0  0  0
    0.9278   -0.7221    2.5678 C   0  0  0  0  0  0  0  0  0  0  0  0
    2.6011   -1.0244    0.7893 C   0  0  0  0  0  0  0  0  0  0  0  0
    3.5915   -0.5926    1.6919 C   0  0  0  0  0  0  0  0  0  0  0  0
    1.9553   -0.2942    3.4246 C   0  0  0  0  0  0  0  0  0  0  0  0
    4.6307   -0.5221    1.3333 H   0  0  0  0  0  0  0  0  0  0  0  0
    1.6889    0.0116    4.4490 H   0  0  0  0  0  0  0  0  0  0  0  0
    3.0241   -1.3512   -0.6205 C   0  0  0  0  0  0  0  0  0  0  0  0
    2.1672   -1.3937   -1.3123 H   0  0  0  0  0  0  0  0  0  0  0  0
    3.5583   -2.3228   -0.6622 H   0  0  0  0  0  0  0  0  0  0  0  0
    3.7213   -0.5780   -0.9978 H   0  0  0  0  0  0  0  0  0  0  0  0
   -0.4850   -0.7379    3.0885 C   0  0  0  0  0  0  0  0  0  0  0  0
   -1.2221   -0.6720    2.2724 H   0  0  0  0  0  0  0  0  0  0  0  0
   -0.6567    0.1263    3.7587 H   0  0  0  0  0  0  0  0  0  0  0  0
   -0.6892   -1.6570    3.6756 H   0  0  0  0  0  0  0  0  0  0  0  0
    4.3777    0.2164    3.9656 C   0  0  0  0  0  0  0  0  0  0  0  0
    4.6221   -0.5851    4.6951 H   0  0  0  0  0  0  0  0  0  0  0  0
    4.0604    1.1008    4.5540 H   0  0  0  0  0  0  0  0  0  0  0  0
    5.3117    0.4749    3.4306 H   0  0  0  0  0  0  0  0  0  0  0  0
   -3.0186   -1.4315   -0.2815 C   0  0  0  0  0  0  0  0  0  0  0  0
   -3.4790   -0.4280   -0.3109 H   0  0  0  0  0  0  0  0  0  0  0  0
   -2.9037   -1.7068    0.7828 H   0  0  0  0  0  0  0  0  0  0  0  0
   -3.7169   -2.1555   -0.7504 H   0  0  0  0  0  0  0  0  0  0  0  0
   -1.9412   -0.8630   -2.4523 C   0  0  0  0  0  0  0  0  0  0  0  0
   -2.7410   -1.4354   -2.9653 H   0  0  0  0  0  0  0  0  0  0  0  0
   -1.0336   -0.8752   -3.0808 H   0  0  0  0  0  0  0  0  0  0  0  0
   -2.2935    0.1897   -2.3791 H   0  0  0  0  0  0  0  0  0  0  0  0
    1.0952   -3.8370   -0.1759 C   0  0  0  0  0  0  0  0  0  0  0  0
    0.7730   -4.8918   -0.2840 H   0  0  0  0  0  0  0  0  0  0  0  0
    1.8341   -3.7923    0.6484 H   0  0  0  0  0  0  0  0  0  0  0  0
    1.5892   -3.5339   -1.1154 H   0  0  0  0  0  0  0  0  0  0  0  0
   -0.8195   -3.5545    1.3785 C   0  0  0  0  0  0  0  0  0  0  0  0
   -1.7217   -2.9893    1.6686 H   0  0  0  0  0  0  0  0  0  0  0  0
   -0.1183   -3.5514    2.2365 H   0  0  0  0  0  0  0  0  0  0  0  0
   -1.1153   -4.6055    1.1871 H   0  0  0  0  0  0  0  0  0  0  0  0
  1  2  1  0  0  0  0
  1  5  1  0  0  0  0
  3  1  1  0  0  0  0
  4  1  1  0  0  0  0
  5  6  1  0  0  0  0
  5 16  1  0  0  0  0
  5  7  1  0  0  0  0
  7  9  1  0  0  0  0
  7  8  1  0  0  0  0
  9 10  1  0  0  0  0
 11  9  1  0  0  0  0
 12  9  1  0  0  0  0
 13 14  1  0  0  0  0
 13 15  1  0  0  0  0
 13  7  1  0  0  0  0
 16 13  1  0  0  0  0
 17 18  1  0  0  0  0
 17 19  1  0  0  0  0
 20 21  1  0  0  0  0
 20 22  1  0  0  0  0
 20 23  1  0  0  0  0
 17 20  1  0  0  0  0
 16 17  1  0  0  0  0
 24 25  1  0  0  0  0
 24 26  1  0  0  0  0
 27 28  1  0  0  0  0
 27 29  1  0  0  0  0
 27 30  1  0  0  0  0
 24 27  1  0  0  0  0
 16 24  1  0  0  0  0
 31 32  1  0  0  0  0
 31 35  1  0  0  0  0
 32 33  1  0  0  0  0
 33 34  1  0  0  0  0
 34 36  1  0  0  0  0
 34 37  1  0  0  0  0
 34 35  1  0  0  0  0
 38 41  2  0  0  0  0
 41 42  1  0  0  0  0
 39 42  2  0  0  0  0
 39 43  1  0  0  0  0
 40 43  2  0  0  0  0
 38 40  1  0  0  0  0
 42 44  1  0  0  0  0
 43 45  1  0  0  0  0
 32 38  1  0  0  0  0
 46 47  1  0  0  0  0
 46 48  1  0  0  0  0
 46 49  1  0  0  0  0
 41 46  1  0  0  0  0
 50 51  1  0  0  0  0
 50 52  1  0  0  0  0
 50 53  1  0  0  0  0
 40 50  1  0  0  0  0
 54 55  1  0  0  0  0
 54 56  1  0  0  0  0
 54 57  1  0  0  0  0
 39 54  1  0  0  0  0
 58 59  1  0  0  0  0
 58 60  1  0  0  0  0
 58 61  1  0  0  0  0
 35 58  1  0  0  0  0
 62 63  1  0  0  0  0
 62 64  1  0  0  0  0
 62 65  1  0  0  0  0
 35 62  1  0  0  0  0
 66 67  1  0  0  0  0
 66 68  1  0  0  0  0
 66 69  1  0  0  0  0
 33 66  1  0  0  0  0
 70 71  1  0  0  0  0
 70 72  1  0  0  0  0
 70 73  1  0  0  0  0
 33 70  1  0  0  0  0
 16 31  1  0  0  0  0
M  END
>  <DFT-ENERGY>
-1165.85518143

$$$$
