cisXCAAC2_A1
  CDK     07292414183D

 81 84  0  0  0  0  0  0  0  0999 V2000
    0.3059   -0.4296   -0.8358 Ru  0  0  0  0  0  0  0  0  0  0  0  0
    0.7750   -2.1444   -2.2250 O   0  0  0  0  0  0  0  0  0  0  0  0
   -0.2750   -1.8432    0.1683 C   0  0  0  0  0  0  0  0  0  0  0  0
   -0.6189   -1.6959    1.1910 H   0  0  0  0  0  0  0  0  0  0  0  0
    1.5848   -2.1670   -3.4508 C   0  0  0  0  0  0  0  0  0  0  0  0
    0.9713   -2.6704   -4.2302 H   0  0  0  0  0  0  0  0  0  0  0  0
    1.7441   -0.6773   -3.7232 C   0  0  0  0  0  0  0  0  0  0  0  0
    2.2202   -0.4853   -4.6872 H   0  0  0  0  0  0  0  0  0  0  0  0
    2.3494   -0.1978   -2.9267 H   0  0  0  0  0  0  0  0  0  0  0  0
    0.7542   -0.1784   -3.7097 H   0  0  0  0  0  0  0  0  0  0  0  0
    2.9020   -2.8841   -3.2002 C   0  0  0  0  0  0  0  0  0  0  0  0
    3.3433   -2.5544   -2.2430 H   0  0  0  0  0  0  0  0  0  0  0  0
    3.6320   -2.6750   -3.9887 H   0  0  0  0  0  0  0  0  0  0  0  0
    2.7818   -3.9711   -3.1313 H   0  0  0  0  0  0  0  0  0  0  0  0
    0.2667   -3.3121   -1.7200 C   0  0  0  0  0  0  0  0  0  0  0  0
    0.2388   -4.5318   -2.3730 C   0  0  0  0  0  0  0  0  0  0  0  0
    0.6332   -4.6529   -3.3781 H   0  0  0  0  0  0  0  0  0  0  0  0
   -0.3250   -5.6203   -1.7155 C   0  0  0  0  0  0  0  0  0  0  0  0
   -0.3585   -6.5852   -2.2233 H   0  0  0  0  0  0  0  0  0  0  0  0
   -0.8459   -5.5037   -0.4302 C   0  0  0  0  0  0  0  0  0  0  0  0
   -1.2756   -6.3727    0.0639 H   0  0  0  0  0  0  0  0  0  0  0  0
   -0.8070   -4.2804    0.2114 C   0  0  0  0  0  0  0  0  0  0  0  0
   -1.1983   -4.1880    1.2234 H   0  0  0  0  0  0  0  0  0  0  0  0
   -0.2673   -3.1628   -0.4280 C   0  0  0  0  0  0  0  0  0  0  0  0
    2.4616   -0.4296   -0.3043 C   0  0  0  0  0  0  0  0  0  0  0  0
    3.0237   -0.2208   -1.2342 H   0  0  0  0  0  0  0  0  0  0  0  0
    2.6875    0.3475    0.4331 H   0  0  0  0  0  0  0  0  0  0  0  0
    2.6786   -1.8323    0.2135 C   0  0  0  0  0  0  0  0  0  0  0  0
    2.0731   -2.0204    1.1141 H   0  0  0  0  0  0  0  0  0  0  0  0
    3.7271   -2.0097    0.4868 H   0  0  0  0  0  0  0  0  0  0  0  0
    2.4064   -2.5868   -0.5406 H   0  0  0  0  0  0  0  0  0  0  0  0
   -1.4849   -0.0991   -2.1426 C   0  0  0  0  0  0  0  0  0  0  0  0
   -2.0902    0.6646   -1.6286 H   0  0  0  0  0  0  0  0  0  0  0  0
   -1.0756    0.3188   -3.0769 H   0  0  0  0  0  0  0  0  0  0  0  0
   -2.2577   -1.3730   -2.3844 C   0  0  0  0  0  0  0  0  0  0  0  0
   -2.6158   -1.8167   -1.4457 H   0  0  0  0  0  0  0  0  0  0  0  0
   -1.6327   -2.1316   -2.8787 H   0  0  0  0  0  0  0  0  0  0  0  0
   -3.1339   -1.1986   -3.0230 H   0  0  0  0  0  0  0  0  0  0  0  0
   -0.1873    1.0801    0.2691 C   0  0  0  0  0  0  0  0  0  0  0  0
   -1.0109    1.3076    1.3368 N   0  0  0  0  0  0  0  0  0  0  0  0
   -1.2634    2.7822    1.6682 C   0  0  0  0  0  0  0  0  0  0  0  0
   -0.6861    3.4835    0.4110 C   0  0  0  0  0  0  0  0  0  0  0  0
    0.3453    2.4762   -0.1761 C   0  0  0  0  0  0  0  0  0  0  0  0
   -0.2256    4.4525    0.6508 H   0  0  0  0  0  0  0  0  0  0  0  0
   -1.4803    3.6994   -0.3233 H   0  0  0  0  0  0  0  0  0  0  0  0
   -1.6404    0.3098    2.1764 C   0  0  0  0  0  0  0  0  0  0  0  0
   -2.9496   -1.3893    3.9936 C   0  0  0  0  0  0  0  0  0  0  0  0
   -0.9357   -0.2142    3.2885 C   0  0  0  0  0  0  0  0  0  0  0  0
   -2.9600   -0.1285    1.9066 C   0  0  0  0  0  0  0  0  0  0  0  0
   -3.6070   -0.9551    2.8354 C   0  0  0  0  0  0  0  0  0  0  0  0
   -1.6088   -1.0377    4.1998 C   0  0  0  0  0  0  0  0  0  0  0  0
   -4.6297   -1.2733    2.6448 H   0  0  0  0  0  0  0  0  0  0  0  0
   -1.0789   -1.4181    5.0700 H   0  0  0  0  0  0  0  0  0  0  0  0
   -3.6587    0.2364    0.6407 C   0  0  0  0  0  0  0  0  0  0  0  0
   -2.9542    0.2092   -0.2239 H   0  0  0  0  0  0  0  0  0  0  0  0
   -4.0743    1.2554    0.6773 H   0  0  0  0  0  0  0  0  0  0  0  0
   -4.4783   -0.4501    0.3962 H   0  0  0  0  0  0  0  0  0  0  0  0
    0.5236    0.0454    3.4771 C   0  0  0  0  0  0  0  0  0  0  0  0
    1.0576    0.0333    2.5069 H   0  0  0  0  0  0  0  0  0  0  0  0
    1.0039   -0.7156    4.1066 H   0  0  0  0  0  0  0  0  0  0  0  0
    0.7114    1.0203    3.9444 H   0  0  0  0  0  0  0  0  0  0  0  0
   -3.6628   -2.2560    4.9800 C   0  0  0  0  0  0  0  0  0  0  0  0
   -3.2184   -2.2066    5.9827 H   0  0  0  0  0  0  0  0  0  0  0  0
   -3.6312   -3.3098    4.6635 H   0  0  0  0  0  0  0  0  0  0  0  0
   -4.7214   -1.9814    5.0827 H   0  0  0  0  0  0  0  0  0  0  0  0
    1.7234    2.7289    0.4557 C   0  0  0  0  0  0  0  0  0  0  0  0
    2.4068    1.8789    0.2643 H   0  0  0  0  0  0  0  0  0  0  0  0
    1.6545    2.8433    1.5472 H   0  0  0  0  0  0  0  0  0  0  0  0
    2.1926    3.6300    0.0522 H   0  0  0  0  0  0  0  0  0  0  0  0
    0.4367    2.5768   -1.6996 C   0  0  0  0  0  0  0  0  0  0  0  0
    0.6844    3.5947   -2.0193 H   0  0  0  0  0  0  0  0  0  0  0  0
   -0.5089    2.2963   -2.1854 H   0  0  0  0  0  0  0  0  0  0  0  0
    1.2232    1.9138   -2.1002 H   0  0  0  0  0  0  0  0  0  0  0  0
   -2.7508    3.0850    1.8559 C   0  0  0  0  0  0  0  0  0  0  0  0
   -2.9202    4.1619    1.9609 H   0  0  0  0  0  0  0  0  0  0  0  0
   -3.1524    2.5997    2.7555 H   0  0  0  0  0  0  0  0  0  0  0  0
   -3.3567    2.7336    1.0068 H   0  0  0  0  0  0  0  0  0  0  0  0
   -0.5008    3.1828    2.9390 C   0  0  0  0  0  0  0  0  0  0  0  0
    0.5843    3.0382    2.8148 H   0  0  0  0  0  0  0  0  0  0  0  0
   -0.8220    2.5904    3.8044 H   0  0  0  0  0  0  0  0  0  0  0  0
   -0.6662    4.2367    3.1848 H   0  0  0  0  0  0  0  0  0  0  0  0
  1  2  1  0  0  0  0
  1  3  2  0  0  0  0
  3  4  1  0  0  0  0
  2  5  1  0  0  0  0
  5  6  1  0  0  0  0
  5  7  1  0  0  0  0
  7  8  1  0  0  0  0
  7  9  1  0  0  0  0
  7 10  1  0  0  0  0
  5 11  1  0  0  0  0
 11 12  1  0  0  0  0
 11 13  1  0  0  0  0
 11 14  1  0  0  0  0
  2 15  1  0  0  0  0
 15 24  1  0  0  0  0
 15 16  2  0  0  0  0
 16 17  1  0  0  0  0
 16 18  1  0  0  0  0
 18 19  1  0  0  0  0
 18 20  2  0  0  0  0
 20 21  1  0  0  0  0
 20 22  1  0  0  0  0
 22 24  2  0  0  0  0
 22 23  1  0  0  0  0
  3 24  1  0  0  0  0
 25 26  1  0  0  0  0
 25 27  1  0  0  0  0
 28 29  1  0  0  0  0
 28 30  1  0  0  0  0
 28 31  1  0  0  0  0
 25 28  1  0  0  0  0
  1 25  1  0  0  0  0
 32 33  1  0  0  0  0
 32 34  1  0  0  0  0
 35 36  1  0  0  0  0
 35 37  1  0  0  0  0
 35 38  1  0  0  0  0
 32 35  1  0  0  0  0
  1 32  1  0  0  0  0
 39 40  1  0  0  0  0
 39 43  1  0  0  0  0
 40 41  1  0  0  0  0
 41 42  1  0  0  0  0
 42 44  1  0  0  0  0
 42 45  1  0  0  0  0
 42 43  1  0  0  0  0
 46 49  2  0  0  0  0
 49 50  1  0  0  0  0
 47 50  2  0  0  0  0
 47 51  1  0  0  0  0
 48 51  2  0  0  0  0
 46 48  1  0  0  0  0
 50 52  1  0  0  0  0
 51 53  1  0  0  0  0
 40 46  1  0  0  0  0
 54 55  1  0  0  0  0
 54 56  1  0  0  0  0
 54 57  1  0  0  0  0
 49 54  1  0  0  0  0
 58 59  1  0  0  0  0
 58 60  1  0  0  0  0
 58 61  1  0  0  0  0
 48 58  1  0  0  0  0
 62 63  1  0  0  0  0
 62 64  1  0  0  0  0
 62 65  1  0  0  0  0
 47 62  1  0  0  0  0
 66 67  1  0  0  0  0
 66 68  1  0  0  0  0
 66 69  1  0  0  0  0
 43 66  1  0  0  0  0
 70 71  1  0  0  0  0
 70 72  1  0  0  0  0
 70 73  1  0  0  0  0
 43 70  1  0  0  0  0
 74 75  1  0  0  0  0
 74 76  1  0  0  0  0
 74 77  1  0  0  0  0
 41 74  1  0  0  0  0
 78 79  1  0  0  0  0
 78 80  1  0  0  0  0
 78 81  1  0  0  0  0
 41 78  1  0  0  0  0
  1 39  1  0  0  0  0
M  END
> <FrozenCore-PM6_ENERGY>
194.797

> <RMSD_CONF_CG-CS>
0.592294

> <RMSD_CONF_GO-CS>
0.000000

> <UID>


> <DESCRIPTOR_DEFINITION_1>
desc1=( echo "1 * ( e( $hartree_to_kcalmol * ( ( $freeEnergyZ - $freeEnergyD ) - ( $freeEnergyX + 2*$G_Ethene - $freeEnergyD - 2*$G_Propene ) - $DDG_reference_HGII ) / $kT ) ) " | bc -l )

> <DESCRIPTOR_DEFINITION_2>
desc1=( echo "1 * ( e( $hartree_to_kcalmol * ( ( $freeEnergyZ - $freeEnergyD ) - ( $freeEnergyX + 2*$G_Ethene - $freeEnergyD - 2*$G_Propene ) - $DDG_reference_HGII ) / $kT ) ) " | bc -l )

> <DESCRIPTOR_DEFINITION_3>
desc1=( echo "1 * ( e( $hartree_to_kcalmol * ( ( $freeEnergyZ - $freeEnergyD ) - ( $freeEnergyX + 2*$G_Ethene - $freeEnergyD - 2*$G_Propene ) - $DDG_reference_HGII ) / $kT ) ) " | bc -l )

> <WEIGHT_DEFINITION_1>
w1=$( echo "1 / ( 1 + e( $hartree_to_kcalmol * ( ( ( $freeEnergyX + 2*$G_Ethene - $freeEnergyD - 2*$G_Propene ) ) - ( $DG_referenceProductionBarrier + $magnitude4 ) ) / $kT ) )" | bc -l )

> <WEIGHT_DEFINITION_2>
w1=$( echo "1 / ( 1 + e( $hartree_to_kcalmol * ( ( ( $freeEnergyX + 2*$G_Ethene - $freeEnergyD - 2*$G_Propene ) ) - ( $DG_referenceProductionBarrier + $magnitude4 ) ) / $kT ) )" | bc -l )

> <WEIGHT_DEFINITION_3>
w1=$( echo "1 / ( 1 + e( $hartree_to_kcalmol * ( ( ( $freeEnergyX + 2*$G_Ethene - $freeEnergyD - 2*$G_Propene ) ) - ( $DG_referenceProductionBarrier + $magnitude4 ) ) / $kT ) )" | bc -l )

> <WEIGHT_DEFINITION_4>
w1=$( echo "1 / ( 1 + e( $hartree_to_kcalmol * ( ( ( $freeEnergyX + 2*$G_Ethene - $freeEnergyD - 2*$G_Propene ) ) - ( $DG_referenceProductionBarrier + $magnitude4 ) ) / $kT ) )" | bc -l )

> <CALCULATION_OF_OVERALL_FITNESS>
fitness=$( echo "( $desc1 + $desc2 + $desc3 ) * ( $w1 * $w2 * $w3 * $w4 )" | bc -l )

> <freeEnergyA>
-1432.60695385

> <freeEnergyF>
-1432.59892166

> <freeEnergyE>
-2194.56072053

> <freeEnergyC>
-1087.32522759

> <freeEnergyL>
-716.683641897

> <freeEnergyX>
-1165.85517977

> <freeEnergyZ>
-1087.35030202

> <freeEnergyD>
-1087.34807595

> <G_Propene>
-117.738020895

> <G_Ethene>
-78.4716324751

> <G_HoveydaProd>
-502.204109499

> <G_SIMes>
-924.27249048

> <G_HG_RuCl2_SIMes>
-2402.13728523

> <DG_referenceProductionBarrier>
0.01468968

> <DG_referencePrecursorStabilityHII>
-0.0052201621

> <DG_referencePrecursorStabilityHI>
0.0117775312

> <DDG_referencePrecursorStability>
.0169976933

> <DG_referenceSynt>
0.0226072217

> <hartree_to_kcalmol>
627.49467516

> <boltzmann_constant>
0.0000000000000000000000138066

> <avogadro_number>
602214000000000000000000

> <jmol_to_kcalmol>
0.00023901

> <temp>
313.15

> <kT>
.6223089948281258706000000000

> <magnitude1>
1.43290809

> <magnitude2>
2.86581618

> <magnitude3>
4.29872427

> <magnitude4>
5.73163236

> <DFT_IDENTIFIER>
1722356107208

> <DFT_MACHINE>
158.36.42.38

> <XTB_IDENTIFIER>
NREC

> <XTB_MACHINE>
NREC

> <DESCRIPTOR_1>
0

> <DESCRIPTOR_2>
-17.506530291310669368

> <DESCRIPTOR_3>
0.0000000001

> <WEIGHT_1>
.99692179963277467001

> <WEIGHT_2>
.00102967903053287762

> <WEIGHT_3>
.99999999999999994744

> <WEIGHT_4>
.97051623002529520410

> <FITNESS>
-.01744077756676458316

$$$$
