
  CDK     08132417513D

 67 70  0  0  0  0  0  0  0  0999 V2000
    1.5961    0.9602   -0.5278 Ru  0  0  0  0  0  0  0  0  0  0  0  0
    3.1858    1.0401   -1.6816 C   0  0  0  0  0  0  0  0  0  0  0  0
    3.0135    1.4127   -2.7073 H   0  0  0  0  0  0  0  0  0  0  0  0
    3.4753    2.1957   -0.6461 C   0  0  0  0  0  0  0  0  0  0  0  0
    3.5417    3.1325   -1.2285 H   0  0  0  0  0  0  0  0  0  0  0  0
    2.3830    2.4401    0.4760 C   0  0  0  0  0  0  0  0  0  0  0  0
    2.7381    2.1884    1.4916 H   0  0  0  0  0  0  0  0  0  0  0  0
    1.8657    3.4113    0.3721 H   0  0  0  0  0  0  0  0  0  0  0  0
    4.4050    1.9177   -0.1174 H   0  0  0  0  0  0  0  0  0  0  0  0
    3.8798    0.1861   -1.5818 H   0  0  0  0  0  0  0  0  0  0  0  0
    0.5160    2.4440   -2.0549 Cl  0  0  0  0  0  0  0  0  0  0  0  0
    2.7619   -0.6106    0.8436 Cl  0  0  0  0  0  0  0  0  0  0  0  0
   -0.0485   -0.1328   -0.3692 C   0  0  0  0  0  0  0  0  0  0  0  0
   -0.8893   -0.1559    0.6916 N   0  0  0  0  0  0  0  0  0  0  0  0
   -2.0614   -1.0074    0.3954 C   0  0  0  0  0  0  0  0  0  0  0  0
   -1.5461   -1.8570   -0.7765 C   0  0  0  0  0  0  0  0  0  0  0  0
   -0.4723   -1.0020   -1.3116 N   0  0  0  0  0  0  0  0  0  0  0  0
   -2.3465   -1.6073    1.2780 H   0  0  0  0  0  0  0  0  0  0  0  0
   -2.9237   -0.3733    0.0965 H   0  0  0  0  0  0  0  0  0  0  0  0
   -2.3246   -2.0500   -1.5373 H   0  0  0  0  0  0  0  0  0  0  0  0
   -1.1312   -2.8309   -0.4332 H   0  0  0  0  0  0  0  0  0  0  0  0
   -0.7787    0.7334    1.8193 C   0  0  0  0  0  0  0  0  0  0  0  0
   -0.4789    2.4539    3.9949 C   0  0  0  0  0  0  0  0  0  0  0  0
   -1.2359    2.0726    1.7019 C   0  0  0  0  0  0  0  0  0  0  0  0
   -0.2108    0.2303    3.0192 C   0  0  0  0  0  0  0  0  0  0  0  0
   -0.0694    1.1202    4.0987 C   0  0  0  0  0  0  0  0  0  0  0  0
   -1.0619    2.9200    2.8122 C   0  0  0  0  0  0  0  0  0  0  0  0
    0.3774    0.7598    5.0353 H   0  0  0  0  0  0  0  0  0  0  0  0
   -1.3971    3.9640    2.7464 H   0  0  0  0  0  0  0  0  0  0  0  0
   -0.3495    3.1357    4.8484 H   0  0  0  0  0  0  0  0  0  0  0  0
    0.1821   -1.2318    3.1755 C   0  0  0  0  0  0  0  0  0  0  0  0
    0.3621   -1.6324    2.1580 H   0  0  0  0  0  0  0  0  0  0  0  0
   -1.9747    2.5760    0.4691 C   0  0  0  0  0  0  0  0  0  0  0  0
   -1.6686    1.9559   -0.3969 H   0  0  0  0  0  0  0  0  0  0  0  0
   -0.9718   -2.0170    3.8315 C   0  0  0  0  0  0  0  0  0  0  0  0
   -1.9274   -1.9068    3.2797 H   0  0  0  0  0  0  0  0  0  0  0  0
   -1.1517   -1.6547    4.8654 H   0  0  0  0  0  0  0  0  0  0  0  0
   -0.7283   -3.0979    3.8879 H   0  0  0  0  0  0  0  0  0  0  0  0
    1.4760   -1.4279    3.9776 C   0  0  0  0  0  0  0  0  0  0  0  0
    2.3013   -0.8345    3.5424 H   0  0  0  0  0  0  0  0  0  0  0  0
    1.7738   -2.4955    3.9530 H   0  0  0  0  0  0  0  0  0  0  0  0
    1.3482   -1.1501    5.0447 H   0  0  0  0  0  0  0  0  0  0  0  0
   -3.4948    2.4227    0.6821 C   0  0  0  0  0  0  0  0  0  0  0  0
   -4.0488    2.7217   -0.2313 H   0  0  0  0  0  0  0  0  0  0  0  0
   -3.8391    3.0679    1.5173 H   0  0  0  0  0  0  0  0  0  0  0  0
   -3.7813    1.3821    0.9355 H   0  0  0  0  0  0  0  0  0  0  0  0
   -1.6378    4.0295    0.1104 C   0  0  0  0  0  0  0  0  0  0  0  0
   -2.1073    4.2929   -0.8576 H   0  0  0  0  0  0  0  0  0  0  0  0
   -0.5473    4.1694   -0.0079 H   0  0  0  0  0  0  0  0  0  0  0  0
   -2.0184    4.7438    0.8699 H   0  0  0  0  0  0  0  0  0  0  0  0
    0.3791   -1.3595   -2.4514 C   0  0  0  0  0  0  0  0  0  0  0  0
    2.2426   -2.8030   -3.3352 C   0  0  0  0  0  0  0  0  0  0  0  0
    0.4875   -1.8764   -4.9116 C   0  0  0  0  0  0  0  0  0  0  0  0
    1.4423   -3.0430   -4.6225 C   0  0  0  0  0  0  0  0  0  0  0  0
   -0.4428   -1.6011   -3.7214 C   0  0  0  0  0  0  0  0  0  0  0  0
    1.3191   -2.5343   -2.1396 C   0  0  0  0  0  0  0  0  0  0  0  0
    2.9115   -1.9240   -3.4763 H   0  0  0  0  0  0  0  0  0  0  0  0
    1.0807   -0.9587   -5.1228 H   0  0  0  0  0  0  0  0  0  0  0  0
    0.8516   -3.9813   -4.5159 H   0  0  0  0  0  0  0  0  0  0  0  0
   -1.1112   -2.4789   -3.5695 H   0  0  0  0  0  0  0  0  0  0  0  0
    0.7130   -3.4444   -1.9292 H   0  0  0  0  0  0  0  0  0  0  0  0
    0.9961   -0.4471   -2.6249 H   0  0  0  0  0  0  0  0  0  0  0  0
    2.9042   -3.6663   -3.1175 H   0  0  0  0  0  0  0  0  0  0  0  0
   -0.1129   -2.0780   -5.8222 H   0  0  0  0  0  0  0  0  0  0  0  0
    2.1275   -3.1995   -5.4813 H   0  0  0  0  0  0  0  0  0  0  0  0
   -1.0882   -0.7203   -3.9151 H   0  0  0  0  0  0  0  0  0  0  0  0
    1.9029   -2.3006   -1.2248 H   0  0  0  0  0  0  0  0  0  0  0  0
  2  4  1  0  0  0  0
  2  1  1  0  0  0  0
  2  3  1  0  0  0  0
  4  6  1  0  0  0  0
  4  5  1  0  0  0  0
  6  1  1  0  0  0  0
  6  8  1  0  0  0  0
  7  6  1  0  0  0  0
  9  4  1  0  0  0  0
 10  2  1  0  0  0  0
  1 11  1  0  0  0  0
  1 12  1  0  0  0  0
 13 14  1  0  0  0  0
 13 17  1  0  0  0  0
 14 15  1  0  0  0  0
 15 18  1  0  0  0  0
 15 19  1  0  0  0  0
 15 16  1  0  0  0  0
 16 20  1  0  0  0  0
 16 21  1  0  0  0  0
 16 17  1  0  0  0  0
 22 25  2  0  0  0  0
 25 26  1  0  0  0  0
 23 26  2  0  0  0  0
 23 27  1  0  0  0  0
 24 27  2  0  0  0  0
 22 24  1  0  0  0  0
 26 28  1  0  0  0  0
 27 29  1  0  0  0  0
 14 22  1  0  0  0  0
 23 30  1  0  0  0  0
 31 32  1  0  0  0  0
 25 31  1  0  0  0  0
 33 34  1  0  0  0  0
 24 33  1  0  0  0  0
 35 36  1  0  0  0  0
 35 37  1  0  0  0  0
 35 38  1  0  0  0  0
 31 35  1  0  0  0  0
 39 40  1  0  0  0  0
 39 41  1  0  0  0  0
 39 42  1  0  0  0  0
 31 39  1  0  0  0  0
 43 44  1  0  0  0  0
 43 45  1  0  0  0  0
 43 46  1  0  0  0  0
 33 43  1  0  0  0  0
 47 48  1  0  0  0  0
 47 49  1  0  0  0  0
 47 50  1  0  0  0  0
 33 47  1  0  0  0  0
 51 62  1  0  0  0  0
 51 55  1  0  0  0  0
 51 56  1  0  0  0  0
 52 57  1  0  0  0  0
 52 63  1  0  0  0  0
 52 54  1  0  0  0  0
 52 56  1  0  0  0  0
 53 58  1  0  0  0  0
 53 64  1  0  0  0  0
 53 55  1  0  0  0  0
 53 54  1  0  0  0  0
 54 59  1  0  0  0  0
 54 65  1  0  0  0  0
 55 60  1  0  0  0  0
 55 66  1  0  0  0  0
 56 61  1  0  0  0  0
 56 67  1  0  0  0  0
 17 51  1  0  0  0  0
  1 13  1  0  0  0  0
M  END
>  <DFT-ENERGY>
-2060.481359

$$$$
