
  CDK     08132407333D

 73 76  0  0  0  0  0  0  0  0999 V2000
   -3.7743    0.1522   -1.8718 C   0  0  0  0  0  0  0  0  0  0  0  0
   -3.6511    1.2163   -2.1405 H   0  0  0  0  0  0  0  0  0  0  0  0
   -4.7812   -0.1982   -2.1917 H   0  0  0  0  0  0  0  0  0  0  0  0
   -3.0349   -0.4369   -2.4511 H   0  0  0  0  0  0  0  0  0  0  0  0
   -3.6313   -0.0773   -0.3845 C   0  0  0  0  0  0  0  0  0  0  0  0
   -3.6997   -1.1304   -0.0517 H   0  0  0  0  0  0  0  0  0  0  0  0
   -4.0447    0.8765    0.5828 C   0  0  0  0  0  0  0  0  0  0  0  0
   -4.2454    1.8965    0.2094 H   0  0  0  0  0  0  0  0  0  0  0  0
   -4.7584    0.4323    1.8391 C   0  0  0  0  0  0  0  0  0  0  0  0
   -4.8112    1.2271    2.6067 H   0  0  0  0  0  0  0  0  0  0  0  0
   -5.8008    0.1555    1.5707 H   0  0  0  0  0  0  0  0  0  0  0  0
   -4.2655   -0.4618    2.2695 H   0  0  0  0  0  0  0  0  0  0  0  0
   -2.1902    1.6358    1.7532 C   0  0  0  0  0  0  0  0  0  0  0  0
   -2.3661    1.2265    2.7718 H   0  0  0  0  0  0  0  0  0  0  0  0
   -2.3095    2.7344    1.6216 H   0  0  0  0  0  0  0  0  0  0  0  0
   -1.6638    0.5620    0.3673 Ru  0  0  0  0  0  0  0  0  0  0  0  0
   -1.7358   -1.4449    1.6906 Cl  0  0  0  0  0  0  0  0  0  0  0  0
   -1.5632    2.4399   -1.1233 Cl  0  0  0  0  0  0  0  0  0  0  0  0
    0.3171    0.4418    0.3454 C   0  0  0  0  0  0  0  0  0  0  0  0
    1.2335    0.8940    1.2398 N   0  0  0  0  0  0  0  0  0  0  0  0
    2.6060    0.6563    0.7426 C   0  0  0  0  0  0  0  0  0  0  0  0
    2.3790   -0.4158   -0.3337 C   0  0  0  0  0  0  0  0  0  0  0  0
    0.9618   -0.2005   -0.6577 N   0  0  0  0  0  0  0  0  0  0  0  0
    3.0189    1.5925    0.3090 H   0  0  0  0  0  0  0  0  0  0  0  0
    3.2692    0.3209    1.5606 H   0  0  0  0  0  0  0  0  0  0  0  0
    2.5370   -1.4433    0.0638 H   0  0  0  0  0  0  0  0  0  0  0  0
    3.0270   -0.2746   -1.2191 H   0  0  0  0  0  0  0  0  0  0  0  0
    0.9506    1.6962    2.3972 C   0  0  0  0  0  0  0  0  0  0  0  0
    0.4211    3.2299    4.6699 C   0  0  0  0  0  0  0  0  0  0  0  0
    0.8038    1.0429    3.6488 C   0  0  0  0  0  0  0  0  0  0  0  0
    0.8464    3.1055    2.2658 C   0  0  0  0  0  0  0  0  0  0  0  0
    0.5773    3.8532    3.4274 C   0  0  0  0  0  0  0  0  0  0  0  0
    0.5361    1.8396    4.7770 C   0  0  0  0  0  0  0  0  0  0  0  0
    0.4884    4.9459    3.3524 H   0  0  0  0  0  0  0  0  0  0  0  0
    0.4128    1.3578    5.7569 H   0  0  0  0  0  0  0  0  0  0  0  0
    0.2086    3.8340    5.5644 H   0  0  0  0  0  0  0  0  0  0  0  0
    1.0702    3.8162    0.9382 C   0  0  0  0  0  0  0  0  0  0  0  0
    0.9268    3.0754    0.1262 H   0  0  0  0  0  0  0  0  0  0  0  0
    0.9726   -0.4626    3.7954 C   0  0  0  0  0  0  0  0  0  0  0  0
    0.8018   -0.9127    2.7978 H   0  0  0  0  0  0  0  0  0  0  0  0
    2.5096    4.3657    0.8742 C   0  0  0  0  0  0  0  0  0  0  0  0
    2.6653    5.1453    1.6492 H   0  0  0  0  0  0  0  0  0  0  0  0
    2.7088    4.8251   -0.1156 H   0  0  0  0  0  0  0  0  0  0  0  0
    3.2690    3.5770    1.0488 H   0  0  0  0  0  0  0  0  0  0  0  0
    0.0625    4.9464    0.6845 C   0  0  0  0  0  0  0  0  0  0  0  0
   -0.9771    4.5729    0.7350 H   0  0  0  0  0  0  0  0  0  0  0  0
    0.2111    5.3572   -0.3338 H   0  0  0  0  0  0  0  0  0  0  0  0
    0.1865    5.7835    1.4028 H   0  0  0  0  0  0  0  0  0  0  0  0
    2.4067   -0.7919    4.2539 C   0  0  0  0  0  0  0  0  0  0  0  0
    2.5580   -1.8896    4.3081 H   0  0  0  0  0  0  0  0  0  0  0  0
    2.6048   -0.3704    5.2619 H   0  0  0  0  0  0  0  0  0  0  0  0
    3.1723   -0.3734    3.5694 H   0  0  0  0  0  0  0  0  0  0  0  0
   -0.0521   -1.0908    4.7496 C   0  0  0  0  0  0  0  0  0  0  0  0
    0.0484   -2.1945    4.7321 H   0  0  0  0  0  0  0  0  0  0  0  0
   -1.0845   -0.8483    4.4349 H   0  0  0  0  0  0  0  0  0  0  0  0
    0.0972   -0.7626    5.7995 H   0  0  0  0  0  0  0  0  0  0  0  0
    0.2094   -0.9722   -1.6474 C   0  0  0  0  0  0  0  0  0  0  0  0
   -0.1829   -1.4380   -4.0958 C   0  0  0  0  0  0  0  0  0  0  0  0
   -0.6965   -3.2118   -2.3603 C   0  0  0  0  0  0  0  0  0  0  0  0
   -0.2268   -2.9424   -3.7961 C   0  0  0  0  0  0  0  0  0  0  0  0
    0.1732   -2.4737   -1.3342 C   0  0  0  0  0  0  0  0  0  0  0  0
    0.6811   -0.6816   -3.0771 C   0  0  0  0  0  0  0  0  0  0  0  0
   -1.2170   -1.0264   -4.0649 H   0  0  0  0  0  0  0  0  0  0  0  0
   -1.7511   -2.8731   -2.2458 H   0  0  0  0  0  0  0  0  0  0  0  0
    0.7913   -3.3730   -3.9341 H   0  0  0  0  0  0  0  0  0  0  0  0
    1.2099   -2.8781   -1.3710 H   0  0  0  0  0  0  0  0  0  0  0  0
    1.7423   -1.0026   -3.1817 H   0  0  0  0  0  0  0  0  0  0  0  0
   -0.8356   -0.5764   -1.5742 H   0  0  0  0  0  0  0  0  0  0  0  0
    0.1935   -1.2527   -5.1227 H   0  0  0  0  0  0  0  0  0  0  0  0
   -0.6958   -4.2997   -2.1445 H   0  0  0  0  0  0  0  0  0  0  0  0
   -0.8868   -3.4595   -4.5231 H   0  0  0  0  0  0  0  0  0  0  0  0
   -0.2136   -2.6154   -0.3040 H   0  0  0  0  0  0  0  0  0  0  0  0
    0.6442    0.4122   -3.2541 H   0  0  0  0  0  0  0  0  0  0  0  0
  1  2  1  0  0  0  0
  1  5  1  0  0  0  0
  1  3  1  0  0  0  0
  1  4  1  0  0  0  0
  5  6  1  0  0  0  0
  5 16  1  0  0  0  0
  5  7  1  0  0  0  0
  7  9  1  0  0  0  0
  7  8  1  0  0  0  0
  9 10  1  0  0  0  0
  9 11  1  0  0  0  0
  9 12  1  0  0  0  0
 13 14  1  0  0  0  0
 13 15  1  0  0  0  0
  7 13  1  0  0  0  0
 13 16  1  0  0  0  0
 16 17  1  0  0  0  0
 16 18  1  0  0  0  0
 19 20  1  0  0  0  0
 19 23  1  0  0  0  0
 20 21  1  0  0  0  0
 21 24  1  0  0  0  0
 21 25  1  0  0  0  0
 21 22  1  0  0  0  0
 22 26  1  0  0  0  0
 22 27  1  0  0  0  0
 22 23  1  0  0  0  0
 28 31  2  0  0  0  0
 31 32  1  0  0  0  0
 29 32  2  0  0  0  0
 29 33  1  0  0  0  0
 30 33  2  0  0  0  0
 28 30  1  0  0  0  0
 32 34  1  0  0  0  0
 33 35  1  0  0  0  0
 20 28  1  0  0  0  0
 29 36  1  0  0  0  0
 37 38  1  0  0  0  0
 31 37  1  0  0  0  0
 39 40  1  0  0  0  0
 30 39  1  0  0  0  0
 41 42  1  0  0  0  0
 41 43  1  0  0  0  0
 41 44  1  0  0  0  0
 37 41  1  0  0  0  0
 45 46  1  0  0  0  0
 45 47  1  0  0  0  0
 45 48  1  0  0  0  0
 37 45  1  0  0  0  0
 49 50  1  0  0  0  0
 49 51  1  0  0  0  0
 49 52  1  0  0  0  0
 39 49  1  0  0  0  0
 53 54  1  0  0  0  0
 53 55  1  0  0  0  0
 53 56  1  0  0  0  0
 39 53  1  0  0  0  0
 57 68  1  0  0  0  0
 57 61  1  0  0  0  0
 57 62  1  0  0  0  0
 58 63  1  0  0  0  0
 58 69  1  0  0  0  0
 58 60  1  0  0  0  0
 58 62  1  0  0  0  0
 59 64  1  0  0  0  0
 59 70  1  0  0  0  0
 59 61  1  0  0  0  0
 59 60  1  0  0  0  0
 60 65  1  0  0  0  0
 60 71  1  0  0  0  0
 61 66  1  0  0  0  0
 61 72  1  0  0  0  0
 62 67  1  0  0  0  0
 62 73  1  0  0  0  0
 23 57  1  0  0  0  0
 16 19  1  0  0  0  0
M  END
>  <DFT-ENERGY>
-2138.98967236

$$$$
