
  CDK     08142418443D

 67 71  0  0  0  0  0  0  0  0999 V2000
    1.5184   -3.3531   -1.1024 H   0  0  0  0  0  0  0  0  0  0  0  0
    2.5170   -3.0134   -0.4690 C   0  0  0  0  0  0  0  0  0  0  0  0
    2.9255   -4.0490   -0.4354 H   0  0  0  0  0  0  0  0  0  0  0  0
    1.9716   -2.2674    0.6967 C   0  0  0  0  0  0  0  0  0  0  0  0
    2.6201   -1.4883    1.1311 H   0  0  0  0  0  0  0  0  0  0  0  0
    1.3745   -2.8229    1.4368 H   0  0  0  0  0  0  0  0  0  0  0  0
    0.9071   -1.6897   -1.0260 Ru  0  0  0  0  0  0  0  0  0  0  0  0
    3.0221   -1.9629   -1.3551 C   0  0  0  0  0  0  0  0  0  0  0  0
    3.5903   -1.1422   -0.8932 H   0  0  0  0  0  0  0  0  0  0  0  0
    3.2783   -2.1883   -2.4030 H   0  0  0  0  0  0  0  0  0  0  0  0
    1.4185    0.0317   -2.5877 Cl  0  0  0  0  0  0  0  0  0  0  0  0
   -0.8191   -3.1157   -0.2181 Cl  0  0  0  0  0  0  0  0  0  0  0  0
   -0.4107   -0.2433   -0.4703 C   0  0  0  0  0  0  0  0  0  0  0  0
   -0.3289    0.5497    0.6292 N   0  0  0  0  0  0  0  0  0  0  0  0
   -1.4002    1.5653    0.6486 C   0  0  0  0  0  0  0  0  0  0  0  0
   -2.3855    1.0137   -0.3921 C   0  0  0  0  0  0  0  0  0  0  0  0
   -1.5466    0.0599   -1.1334 N   0  0  0  0  0  0  0  0  0  0  0  0
   -1.8389    1.6556    1.6593 H   0  0  0  0  0  0  0  0  0  0  0  0
   -0.9847    2.5537    0.3546 H   0  0  0  0  0  0  0  0  0  0  0  0
   -2.7865    1.7995   -1.0600 H   0  0  0  0  0  0  0  0  0  0  0  0
   -3.2418    0.4833    0.0793 H   0  0  0  0  0  0  0  0  0  0  0  0
    0.6817    0.4847    1.6428 C   0  0  0  0  0  0  0  0  0  0  0  0
    2.6291    0.3466    3.6345 C   0  0  0  0  0  0  0  0  0  0  0  0
    1.8780    1.2249    1.4808 C   0  0  0  0  0  0  0  0  0  0  0  0
    0.4266   -0.2989    2.7970 C   0  0  0  0  0  0  0  0  0  0  0  0
    1.4258   -0.3526    3.7856 C   0  0  0  0  0  0  0  0  0  0  0  0
    2.8485    1.1310    2.4958 C   0  0  0  0  0  0  0  0  0  0  0  0
    1.2589   -0.9577    4.6880 H   0  0  0  0  0  0  0  0  0  0  0  0
    3.7907    1.6880    2.3926 H   0  0  0  0  0  0  0  0  0  0  0  0
    3.4011    0.2851    4.4156 H   0  0  0  0  0  0  0  0  0  0  0  0
   -0.9003   -1.0194    3.0021 C   0  0  0  0  0  0  0  0  0  0  0  0
   -1.4096   -1.0670    2.0191 H   0  0  0  0  0  0  0  0  0  0  0  0
    2.0966    2.1429    0.2871 C   0  0  0  0  0  0  0  0  0  0  0  0
    1.3604    1.8653   -0.4927 H   0  0  0  0  0  0  0  0  0  0  0  0
   -1.7827   -0.2184    3.9802 C   0  0  0  0  0  0  0  0  0  0  0  0
   -1.3202   -0.1843    4.9890 H   0  0  0  0  0  0  0  0  0  0  0  0
   -2.7833   -0.6866    4.0808 H   0  0  0  0  0  0  0  0  0  0  0  0
   -1.9237    0.8314    3.6517 H   0  0  0  0  0  0  0  0  0  0  0  0
   -0.7427   -2.4659    3.4914 C   0  0  0  0  0  0  0  0  0  0  0  0
   -0.1752   -3.0764    2.7642 H   0  0  0  0  0  0  0  0  0  0  0  0
   -1.7411   -2.9341    3.6049 H   0  0  0  0  0  0  0  0  0  0  0  0
   -0.2378   -2.5208    4.4779 H   0  0  0  0  0  0  0  0  0  0  0  0
    1.8489    3.6065    0.7010 C   0  0  0  0  0  0  0  0  0  0  0  0
    1.9436    4.2819   -0.1738 H   0  0  0  0  0  0  0  0  0  0  0  0
    2.5861    3.9323    1.4646 H   0  0  0  0  0  0  0  0  0  0  0  0
    0.8395    3.7464    1.1384 H   0  0  0  0  0  0  0  0  0  0  0  0
    3.4875    1.9870   -0.3421 C   0  0  0  0  0  0  0  0  0  0  0  0
    3.5634    2.6134   -1.2529 H   0  0  0  0  0  0  0  0  0  0  0  0
    3.6699    0.9394   -0.6469 H   0  0  0  0  0  0  0  0  0  0  0  0
    4.2966    2.3020    0.3491 H   0  0  0  0  0  0  0  0  0  0  0  0
   -1.9996   -0.6092   -2.3531 C   0  0  0  0  0  0  0  0  0  0  0  0
   -3.7159   -2.1083   -3.4234 C   0  0  0  0  0  0  0  0  0  0  0  0
   -2.4795   -0.3914   -4.8168 C   0  0  0  0  0  0  0  0  0  0  0  0
   -3.7931   -1.1622   -4.6292 C   0  0  0  0  0  0  0  0  0  0  0  0
   -2.0782    0.3609   -3.5409 C   0  0  0  0  0  0  0  0  0  0  0  0
   -3.3233   -1.3587   -2.1433 C   0  0  0  0  0  0  0  0  0  0  0  0
   -2.9580   -2.8990   -3.6205 H   0  0  0  0  0  0  0  0  0  0  0  0
   -1.6675   -1.1059   -5.0797 H   0  0  0  0  0  0  0  0  0  0  0  0
   -4.6237   -0.4365   -4.4716 H   0  0  0  0  0  0  0  0  0  0  0  0
   -2.8337    1.1507   -3.3255 H   0  0  0  0  0  0  0  0  0  0  0  0
   -4.1253   -0.6298   -1.8860 H   0  0  0  0  0  0  0  0  0  0  0  0
   -1.2111   -1.3624   -2.5718 H   0  0  0  0  0  0  0  0  0  0  0  0
   -4.6829   -2.6315   -3.2741 H   0  0  0  0  0  0  0  0  0  0  0  0
   -2.5593    0.3177   -5.6664 H   0  0  0  0  0  0  0  0  0  0  0  0
   -4.0428   -1.7296   -5.5498 H   0  0  0  0  0  0  0  0  0  0  0  0
   -1.0953    0.8575   -3.6611 H   0  0  0  0  0  0  0  0  0  0  0  0
   -3.2122   -2.0577   -1.2909 H   0  0  0  0  0  0  0  0  0  0  0  0
  1  2  1  0  0  0  0
  1  7  1  0  0  0  0
  2  3  1  0  0  0  0
  2  4  1  0  0  0  0
  4  5  1  0  0  0  0
  6  4  1  0  0  0  0
  7  8  1  0  0  0  0
  7  4  1  0  0  0  0
  8  2  1  0  0  0  0
  8  9  1  0  0  0  0
 10  8  1  0  0  0  0
  7 11  1  0  0  0  0
  7 12  1  0  0  0  0
 13 14  1  0  0  0  0
 13 17  1  0  0  0  0
 14 15  1  0  0  0  0
 15 18  1  0  0  0  0
 15 19  1  0  0  0  0
 15 16  1  0  0  0  0
 16 20  1  0  0  0  0
 16 21  1  0  0  0  0
 16 17  1  0  0  0  0
 22 25  2  0  0  0  0
 25 26  1  0  0  0  0
 23 26  2  0  0  0  0
 23 27  1  0  0  0  0
 24 27  2  0  0  0  0
 22 24  1  0  0  0  0
 26 28  1  0  0  0  0
 27 29  1  0  0  0  0
 14 22  1  0  0  0  0
 23 30  1  0  0  0  0
 31 32  1  0  0  0  0
 25 31  1  0  0  0  0
 33 34  1  0  0  0  0
 24 33  1  0  0  0  0
 35 36  1  0  0  0  0
 35 37  1  0  0  0  0
 35 38  1  0  0  0  0
 31 35  1  0  0  0  0
 39 40  1  0  0  0  0
 39 41  1  0  0  0  0
 39 42  1  0  0  0  0
 31 39  1  0  0  0  0
 43 44  1  0  0  0  0
 43 45  1  0  0  0  0
 43 46  1  0  0  0  0
 33 43  1  0  0  0  0
 47 48  1  0  0  0  0
 47 49  1  0  0  0  0
 47 50  1  0  0  0  0
 33 47  1  0  0  0  0
 51 62  1  0  0  0  0
 51 55  1  0  0  0  0
 51 56  1  0  0  0  0
 52 57  1  0  0  0  0
 52 63  1  0  0  0  0
 52 54  1  0  0  0  0
 52 56  1  0  0  0  0
 53 58  1  0  0  0  0
 53 64  1  0  0  0  0
 53 55  1  0  0  0  0
 53 54  1  0  0  0  0
 54 59  1  0  0  0  0
 54 65  1  0  0  0  0
 55 60  1  0  0  0  0
 55 66  1  0  0  0  0
 56 61  1  0  0  0  0
 56 67  1  0  0  0  0
 17 51  1  0  0  0  0
  7 13  1  0  0  0  0
M  END
>  <DFT-ENERGY>
-2060.44489401

$$$$
