
  CDK     08162421173D

 67 70  0  0  0  0  0  0  0  0999 V2000
    1.5027    0.1576    3.1956 C   0  0  0  0  0  0  0  0  0  0  0  0
    1.9189   -0.8650    3.1943 H   0  0  0  0  0  0  0  0  0  0  0  0
    1.8370    0.6970    4.1104 H   0  0  0  0  0  0  0  0  0  0  0  0
    1.9325    0.7071    2.3326 H   0  0  0  0  0  0  0  0  0  0  0  0
   -0.0076    0.1651    3.1620 C   0  0  0  0  0  0  0  0  0  0  0  0
   -0.4731    1.1622    3.2718 H   0  0  0  0  0  0  0  0  0  0  0  0
   -0.8307   -0.9236    3.5573 C   0  0  0  0  0  0  0  0  0  0  0  0
   -0.3313   -1.8969    3.7072 H   0  0  0  0  0  0  0  0  0  0  0  0
   -2.1133   -0.6653    4.3155 C   0  0  0  0  0  0  0  0  0  0  0  0
   -2.7861   -1.5434    4.3324 H   0  0  0  0  0  0  0  0  0  0  0  0
   -1.8535   -0.4229    5.3686 H   0  0  0  0  0  0  0  0  0  0  0  0
   -2.6544    0.2022    3.8884 H   0  0  0  0  0  0  0  0  0  0  0  0
   -1.9886   -1.6726    1.6909 C   0  0  0  0  0  0  0  0  0  0  0  0
   -3.0207   -1.2941    1.8505 H   0  0  0  0  0  0  0  0  0  0  0  0
   -1.8226   -2.7661    1.8064 H   0  0  0  0  0  0  0  0  0  0  0  0
   -0.6186   -0.5606    1.1964 Ru  0  0  0  0  0  0  0  0  0  0  0  0
   -2.2284    1.4021    1.2554 Br  0  0  0  0  0  0  0  0  0  0  0  0
    0.9629   -2.5473    1.2577 Br  0  0  0  0  0  0  0  0  0  0  0  0
    0.4226    0.3950   -1.4250 N   0  0  0  0  0  0  0  0  0  0  0  0
   -1.3620   -0.8594   -1.7457 N   0  0  0  0  0  0  0  0  0  0  0  0
   -0.5198   -0.3632   -0.8031 C   0  0  0  0  0  0  0  0  0  0  0  0
    0.3169    0.3345   -2.8948 C   0  0  0  0  0  0  0  0  0  0  0  0
   -1.0463   -0.3512   -3.0971 C   0  0  0  0  0  0  0  0  0  0  0  0
    1.1562   -0.2608   -3.3128 H   0  0  0  0  0  0  0  0  0  0  0  0
    0.3590    1.3508   -3.3330 H   0  0  0  0  0  0  0  0  0  0  0  0
   -1.8302    0.3632   -3.4247 H   0  0  0  0  0  0  0  0  0  0  0  0
   -1.0099   -1.1855   -3.8245 H   0  0  0  0  0  0  0  0  0  0  0  0
    1.5848    0.8915   -0.7416 C   0  0  0  0  0  0  0  0  0  0  0  0
    2.7300    0.0669   -0.6223 C   0  0  0  0  0  0  0  0  0  0  0  0
    3.8242    0.5627    0.1064 C   0  0  0  0  0  0  0  0  0  0  0  0
    3.8178    1.8470    0.6785 C   0  0  0  0  0  0  0  0  0  0  0  0
    2.6936    2.6656    0.4704 C   0  0  0  0  0  0  0  0  0  0  0  0
    1.5693    2.2181   -0.2463 C   0  0  0  0  0  0  0  0  0  0  0  0
    4.7097   -0.0800    0.2287 H   0  0  0  0  0  0  0  0  0  0  0  0
    2.6887    3.6910    0.8716 H   0  0  0  0  0  0  0  0  0  0  0  0
    2.8189   -1.2725   -1.3044 C   0  0  0  0  0  0  0  0  0  0  0  0
    3.5177   -1.9401   -0.7679 H   0  0  0  0  0  0  0  0  0  0  0  0
    3.1986   -1.1503   -2.3428 H   0  0  0  0  0  0  0  0  0  0  0  0
    1.8423   -1.7873   -1.3387 H   0  0  0  0  0  0  0  0  0  0  0  0
    4.9804    2.3267    1.5098 C   0  0  0  0  0  0  0  0  0  0  0  0
    5.9388    1.8955    1.1603 H   0  0  0  0  0  0  0  0  0  0  0  0
    4.8536    2.0224    2.5712 H   0  0  0  0  0  0  0  0  0  0  0  0
    5.0669    3.4306    1.4937 H   0  0  0  0  0  0  0  0  0  0  0  0
    0.4025    3.1317   -0.4994 C   0  0  0  0  0  0  0  0  0  0  0  0
    0.6398    4.1654   -0.1851 H   0  0  0  0  0  0  0  0  0  0  0  0
   -0.5022    2.7941    0.0511 H   0  0  0  0  0  0  0  0  0  0  0  0
    0.1311    3.1516   -1.5749 H   0  0  0  0  0  0  0  0  0  0  0  0
   -2.5298   -1.6522   -1.4906 C   0  0  0  0  0  0  0  0  0  0  0  0
   -2.3760   -3.0537   -1.3671 C   0  0  0  0  0  0  0  0  0  0  0  0
   -3.5174   -3.8203   -1.0773 C   0  0  0  0  0  0  0  0  0  0  0  0
   -4.7882   -3.2359   -0.9309 C   0  0  0  0  0  0  0  0  0  0  0  0
   -4.9089   -1.8493   -1.1226 C   0  0  0  0  0  0  0  0  0  0  0  0
   -3.7996   -1.0357   -1.4155 C   0  0  0  0  0  0  0  0  0  0  0  0
   -3.4070   -4.9110   -0.9717 H   0  0  0  0  0  0  0  0  0  0  0  0
   -5.9006   -1.3769   -1.0436 H   0  0  0  0  0  0  0  0  0  0  0  0
   -1.0336   -3.7062   -1.5446 C   0  0  0  0  0  0  0  0  0  0  0  0
   -0.5138   -3.3302   -2.4497 H   0  0  0  0  0  0  0  0  0  0  0  0
   -1.1387   -4.8035   -1.6371 H   0  0  0  0  0  0  0  0  0  0  0  0
   -0.3642   -3.4917   -0.6820 H   0  0  0  0  0  0  0  0  0  0  0  0
   -5.9867   -4.0775   -0.5705 C   0  0  0  0  0  0  0  0  0  0  0  0
   -5.9363   -5.0800   -1.0397 H   0  0  0  0  0  0  0  0  0  0  0  0
   -6.9335   -3.5953   -0.8816 H   0  0  0  0  0  0  0  0  0  0  0  0
   -6.0428   -4.2360    0.5279 H   0  0  0  0  0  0  0  0  0  0  0  0
   -3.9830    0.4361   -1.6729 C   0  0  0  0  0  0  0  0  0  0  0  0
   -4.9275    0.7976   -1.2246 H   0  0  0  0  0  0  0  0  0  0  0  0
   -4.0361    0.6432   -2.7643 H   0  0  0  0  0  0  0  0  0  0  0  0
   -3.1593    1.0307   -1.2345 H   0  0  0  0  0  0  0  0  0  0  0  0
  1  2  1  0  0  0  0
  1  5  1  0  0  0  0
  1  3  1  0  0  0  0
  1  4  1  0  0  0  0
  5  6  1  0  0  0  0
  5 16  1  0  0  0  0
  5  7  1  0  0  0  0
  7  9  1  0  0  0  0
  7  8  1  0  0  0  0
  9 10  1  0  0  0  0
  9 11  1  0  0  0  0
  9 12  1  0  0  0  0
 13 14  1  0  0  0  0
 13 15  1  0  0  0  0
  7 13  1  0  0  0  0
 13 16  1  0  0  0  0
 16 17  1  0  0  0  0
 16 18  1  0  0  0  0
 19 21  1  0  0  0  0
 20 21  1  0  0  0  0
 19 22  1  0  0  0  0
 22 23  1  0  0  0  0
 20 23  1  0  0  0  0
 22 24  1  0  0  0  0
 22 25  1  0  0  0  0
 23 26  1  0  0  0  0
 23 27  1  0  0  0  0
 28 29  2  0  0  0  0
 29 30  1  0  0  0  0
 30 31  2  0  0  0  0
 31 32  1  0  0  0  0
 32 33  2  0  0  0  0
 28 33  1  0  0  0  0
 30 34  1  0  0  0  0
 32 35  1  0  0  0  0
 19 28  1  0  0  0  0
 36 37  1  0  0  0  0
 36 38  1  0  0  0  0
 36 39  1  0  0  0  0
 29 36  1  0  0  0  0
 40 41  1  0  0  0  0
 40 42  1  0  0  0  0
 40 43  1  0  0  0  0
 31 40  1  0  0  0  0
 44 45  1  0  0  0  0
 44 46  1  0  0  0  0
 44 47  1  0  0  0  0
 33 44  1  0  0  0  0
 48 49  2  0  0  0  0
 49 50  1  0  0  0  0
 50 51  2  0  0  0  0
 51 52  1  0  0  0  0
 52 53  2  0  0  0  0
 48 53  1  0  0  0  0
 50 54  1  0  0  0  0
 52 55  1  0  0  0  0
 20 48  1  0  0  0  0
 56 57  1  0  0  0  0
 56 58  1  0  0  0  0
 56 59  1  0  0  0  0
 49 56  1  0  0  0  0
 60 61  1  0  0  0  0
 60 62  1  0  0  0  0
 60 63  1  0  0  0  0
 51 60  1  0  0  0  0
 64 65  1  0  0  0  0
 64 66  1  0  0  0  0
 64 67  1  0  0  0  0
 53 64  1  0  0  0  0
 16 21  1  0  0  0  0
M  END
>  <DFT-ENERGY>
-6362.8778904

$$$$
