
  CDK     08172409363D

 61 64  0  0  0  0  0  0  0  0999 V2000
    1.3042   -0.7984   -0.1483 Ru  0  0  0  0  0  0  0  0  0  0  0  0
    2.9466   -0.6568   -1.2141 C   0  0  0  0  0  0  0  0  0  0  0  0
    2.8339   -0.8542   -2.2947 H   0  0  0  0  0  0  0  0  0  0  0  0
    3.2161   -1.9633   -0.3639 C   0  0  0  0  0  0  0  0  0  0  0  0
    3.3297   -2.7871   -1.0926 H   0  0  0  0  0  0  0  0  0  0  0  0
    2.0842   -2.4162    0.6442 C   0  0  0  0  0  0  0  0  0  0  0  0
    2.3837   -2.3329    1.7037 H   0  0  0  0  0  0  0  0  0  0  0  0
    1.5983   -3.3640    0.3510 H   0  0  0  0  0  0  0  0  0  0  0  0
    4.1108   -1.7540    0.2510 H   0  0  0  0  0  0  0  0  0  0  0  0
    3.6123    0.1815   -0.9413 H   0  0  0  0  0  0  0  0  0  0  0  0
    0.3503   -2.2222   -1.9960 Br  0  0  0  0  0  0  0  0  0  0  0  0
    2.4332    0.5174    1.6808 Br  0  0  0  0  0  0  0  0  0  0  0  0
   -0.8447    1.1740   -0.8236 N   0  0  0  0  0  0  0  0  0  0  0  0
   -1.2839    0.1030    1.0556 N   0  0  0  0  0  0  0  0  0  0  0  0
   -0.3966    0.2347    0.0420 C   0  0  0  0  0  0  0  0  0  0  0  0
   -2.0630    1.8414   -0.3200 C   0  0  0  0  0  0  0  0  0  0  0  0
   -2.5004    0.9084    0.8224 C   0  0  0  0  0  0  0  0  0  0  0  0
   -2.8193    1.9264   -1.1227 H   0  0  0  0  0  0  0  0  0  0  0  0
   -1.8140    2.8643    0.0370 H   0  0  0  0  0  0  0  0  0  0  0  0
   -2.7872    1.4538    1.7409 H   0  0  0  0  0  0  0  0  0  0  0  0
   -3.3432    0.2448    0.5307 H   0  0  0  0  0  0  0  0  0  0  0  0
   -0.1550    1.5691   -2.0197 C   0  0  0  0  0  0  0  0  0  0  0  0
   -0.6149    1.0675   -3.2610 C   0  0  0  0  0  0  0  0  0  0  0  0
    0.1038    1.4118   -4.4152 C   0  0  0  0  0  0  0  0  0  0  0  0
    1.2376    2.2444   -4.3655 C   0  0  0  0  0  0  0  0  0  0  0  0
    1.6219    2.7738   -3.1232 C   0  0  0  0  0  0  0  0  0  0  0  0
    0.9348    2.4646   -1.9341 C   0  0  0  0  0  0  0  0  0  0  0  0
   -0.2322    1.0112   -5.3843 H   0  0  0  0  0  0  0  0  0  0  0  0
    2.4791    3.4632   -3.0712 H   0  0  0  0  0  0  0  0  0  0  0  0
   -1.8419    0.1997   -3.3437 C   0  0  0  0  0  0  0  0  0  0  0  0
   -1.9707   -0.1997   -4.3668 H   0  0  0  0  0  0  0  0  0  0  0  0
   -2.7615    0.7701   -3.0904 H   0  0  0  0  0  0  0  0  0  0  0  0
   -1.7609   -0.6599   -2.6494 H   0  0  0  0  0  0  0  0  0  0  0  0
    2.0148    2.5558   -5.6195 C   0  0  0  0  0  0  0  0  0  0  0  0
    1.3411    2.7881   -6.4687 H   0  0  0  0  0  0  0  0  0  0  0  0
    2.6320    1.6849   -5.9268 H   0  0  0  0  0  0  0  0  0  0  0  0
    2.6985    3.4141   -5.4744 H   0  0  0  0  0  0  0  0  0  0  0  0
    1.3456    3.0936   -0.6305 C   0  0  0  0  0  0  0  0  0  0  0  0
    2.0014    3.9663   -0.8101 H   0  0  0  0  0  0  0  0  0  0  0  0
    1.8914    2.3807    0.0250 H   0  0  0  0  0  0  0  0  0  0  0  0
    0.4686    3.4388   -0.0467 H   0  0  0  0  0  0  0  0  0  0  0  0
   -1.1234   -0.7982    2.1621 C   0  0  0  0  0  0  0  0  0  0  0  0
   -1.4330   -2.1673    1.9991 C   0  0  0  0  0  0  0  0  0  0  0  0
   -1.2010   -3.0246    3.0913 C   0  0  0  0  0  0  0  0  0  0  0  0
   -0.7061   -2.5526    4.3174 C   0  0  0  0  0  0  0  0  0  0  0  0
   -0.4763   -1.1711    4.4583 C   0  0  0  0  0  0  0  0  0  0  0  0
   -0.6862   -0.2729    3.4017 C   0  0  0  0  0  0  0  0  0  0  0  0
   -1.4293   -4.0958    2.9768 H   0  0  0  0  0  0  0  0  0  0  0  0
   -0.1169   -0.7770    5.4215 H   0  0  0  0  0  0  0  0  0  0  0  0
   -2.0136   -2.7033    0.7185 C   0  0  0  0  0  0  0  0  0  0  0  0
   -2.4490   -3.7073    0.8798 H   0  0  0  0  0  0  0  0  0  0  0  0
   -1.2511   -2.7827   -0.0865 H   0  0  0  0  0  0  0  0  0  0  0  0
   -2.8118   -2.0437    0.3221 H   0  0  0  0  0  0  0  0  0  0  0  0
   -0.4249   -3.4963    5.4593 C   0  0  0  0  0  0  0  0  0  0  0  0
   -0.7805   -3.0842    6.4249 H   0  0  0  0  0  0  0  0  0  0  0  0
    0.6669   -3.6711    5.5660 H   0  0  0  0  0  0  0  0  0  0  0  0
   -0.9060   -4.4810    5.3041 H   0  0  0  0  0  0  0  0  0  0  0  0
   -0.4638    1.2042    3.5857 C   0  0  0  0  0  0  0  0  0  0  0  0
    0.0073    1.4104    4.5647 H   0  0  0  0  0  0  0  0  0  0  0  0
   -1.4218    1.7668    3.5517 H   0  0  0  0  0  0  0  0  0  0  0  0
    0.2035    1.6015    2.7958 H   0  0  0  0  0  0  0  0  0  0  0  0
  2  4  1  0  0  0  0
  2  1  1  0  0  0  0
  2  3  1  0  0  0  0
  4  6  1  0  0  0  0
  4  5  1  0  0  0  0
  6  1  1  0  0  0  0
  6  8  1  0  0  0  0
  7  6  1  0  0  0  0
  9  4  1  0  0  0  0
 10  2  1  0  0  0  0
  1 11  1  0  0  0  0
  1 12  1  0  0  0  0
 13 15  1  0  0  0  0
 14 15  1  0  0  0  0
 16 13  1  0  0  0  0
 16 17  1  0  0  0  0
 17 14  1  0  0  0  0
 18 16  1  0  0  0  0
 19 16  1  0  0  0  0
 20 17  1  0  0  0  0
 21 17  1  0  0  0  0
 23 22  2  0  0  0  0
 24 23  1  0  0  0  0
 25 24  2  0  0  0  0
 26 25  1  0  0  0  0
 26 27  2  0  0  0  0
 27 22  1  0  0  0  0
 28 24  1  0  0  0  0
 29 26  1  0  0  0  0
 13 22  1  0  0  0  0
 31 30  1  0  0  0  0
 32 30  1  0  0  0  0
 33 30  1  0  0  0  0
 23 30  1  0  0  0  0
 35 34  1  0  0  0  0
 36 34  1  0  0  0  0
 37 34  1  0  0  0  0
 25 34  1  0  0  0  0
 39 38  1  0  0  0  0
 40 38  1  0  0  0  0
 41 38  1  0  0  0  0
 27 38  1  0  0  0  0
 43 42  2  0  0  0  0
 44 43  1  0  0  0  0
 45 44  2  0  0  0  0
 46 45  1  0  0  0  0
 46 47  2  0  0  0  0
 47 42  1  0  0  0  0
 48 44  1  0  0  0  0
 49 46  1  0  0  0  0
 14 42  1  0  0  0  0
 51 50  1  0  0  0  0
 52 50  1  0  0  0  0
 53 50  1  0  0  0  0
 43 50  1  0  0  0  0
 55 54  1  0  0  0  0
 56 54  1  0  0  0  0
 57 54  1  0  0  0  0
 45 54  1  0  0  0  0
 59 58  1  0  0  0  0
 60 58  1  0  0  0  0
 61 58  1  0  0  0  0
 47 58  1  0  0  0  0
  1 15  1  0  0  0  0
M  END
>  <DFT-ENERGY>
-6284.36877572

$$$$
