SIMesBr-1_A1
  CDK     08162410193D

 75 79  0  0  0  0  0  0  0  0999 V2000
   -0.6126    0.5719   -0.1177 Ru  0  0  0  0  0  0  0  0  0  0  0  0
   -2.3904    1.9611   -0.1177 O   0  0  0  0  0  0  0  0  0  0  0  0
   -1.8228   -0.4322    0.8156 C   0  0  0  0  0  0  0  0  0  0  0  0
   -1.5900   -1.4549    1.1085 H   0  0  0  0  0  0  0  0  0  0  0  0
   -2.6259    3.1869   -0.8929 C   0  0  0  0  0  0  0  0  0  0  0  0
   -3.0038    3.9531   -0.1828 H   0  0  0  0  0  0  0  0  0  0  0  0
   -1.2080    3.4752   -1.3657 C   0  0  0  0  0  0  0  0  0  0  0  0
   -1.1325    4.4399   -1.8743 H   0  0  0  0  0  0  0  0  0  0  0  0
   -0.8464    2.6936   -2.0641 H   0  0  0  0  0  0  0  0  0  0  0  0
   -0.5008    3.4818   -0.5102 H   0  0  0  0  0  0  0  0  0  0  0  0
   -3.5979    2.8750   -2.0156 C   0  0  0  0  0  0  0  0  0  0  0  0
   -3.5929    3.6555   -2.7841 H   0  0  0  0  0  0  0  0  0  0  0  0
   -4.6277    2.7499   -1.6651 H   0  0  0  0  0  0  0  0  0  0  0  0
   -3.3166    1.9277   -2.5145 H   0  0  0  0  0  0  0  0  0  0  0  0
   -3.3826    1.4561    0.6807 C   0  0  0  0  0  0  0  0  0  0  0  0
   -4.5518    2.1090    1.0293 C   0  0  0  0  0  0  0  0  0  0  0  0
   -4.7704    3.1161    0.6805 H   0  0  0  0  0  0  0  0  0  0  0  0
   -5.4530    1.4515    1.8604 C   0  0  0  0  0  0  0  0  0  0  0  0
   -6.3762    1.9608    2.1483 H   0  0  0  0  0  0  0  0  0  0  0  0
   -5.2029    0.1663    2.3321 C   0  0  0  0  0  0  0  0  0  0  0  0
   -5.9277   -0.3281    2.9772 H   0  0  0  0  0  0  0  0  0  0  0  0
   -4.0332   -0.4753    1.9718 C   0  0  0  0  0  0  0  0  0  0  0  0
   -3.8400   -1.4866    2.3264 H   0  0  0  0  0  0  0  0  0  0  0  0
   -3.0977    0.1641    1.1564 C   0  0  0  0  0  0  0  0  0  0  0  0
   -1.3399   -0.2758   -2.3579 Br  0  0  0  0  0  0  0  0  0  0  0  0
    0.2522    1.8548    1.8307 Br  0  0  0  0  0  0  0  0  0  0  0  0
    2.1879   -0.1169   -0.7080 N   0  0  0  0  0  0  0  0  0  0  0  0
    1.2674   -1.8609    0.3249 N   0  0  0  0  0  0  0  0  0  0  0  0
    1.0050   -0.5790   -0.1327 C   0  0  0  0  0  0  0  0  0  0  0  0
    3.3077   -1.1231   -0.6796 C   0  0  0  0  0  0  0  0  0  0  0  0
    2.6740   -2.3265    0.0397 C   0  0  0  0  0  0  0  0  0  0  0  0
    4.1815   -0.7091   -0.1376 H   0  0  0  0  0  0  0  0  0  0  0  0
    3.6317   -1.3614   -1.7126 H   0  0  0  0  0  0  0  0  0  0  0  0
    2.6527   -3.2387   -0.5894 H   0  0  0  0  0  0  0  0  0  0  0  0
    3.1899   -2.5807    0.9870 H   0  0  0  0  0  0  0  0  0  0  0  0
    2.4723    1.1648   -1.3060 C   0  0  0  0  0  0  0  0  0  0  0  0
    3.0792    2.1831   -0.5264 C   0  0  0  0  0  0  0  0  0  0  0  0
    3.3847    3.4105   -1.1289 C   0  0  0  0  0  0  0  0  0  0  0  0
    3.1257    3.6321   -2.4884 C   0  0  0  0  0  0  0  0  0  0  0  0
    2.5762    2.6034   -3.2624 C   0  0  0  0  0  0  0  0  0  0  0  0
    2.2603    1.3611   -2.6924 C   0  0  0  0  0  0  0  0  0  0  0  0
    3.8316    4.2012   -0.5294 H   0  0  0  0  0  0  0  0  0  0  0  0
    2.3957    2.7611   -4.3237 H   0  0  0  0  0  0  0  0  0  0  0  0
    3.4494    1.9879    0.9060 C   0  0  0  0  0  0  0  0  0  0  0  0
    3.0713    2.8158    1.5304 H   0  0  0  0  0  0  0  0  0  0  0  0
    4.5392    1.9534    1.0325 H   0  0  0  0  0  0  0  0  0  0  0  0
    3.0282    1.0729    1.3482 H   0  0  0  0  0  0  0  0  0  0  0  0
    3.4634    4.9504   -3.1050 C   0  0  0  0  0  0  0  0  0  0  0  0
    4.5519    5.0601   -3.2221 H   0  0  0  0  0  0  0  0  0  0  0  0
    3.1194    5.7895   -2.4836 H   0  0  0  0  0  0  0  0  0  0  0  0
    3.0165    5.0818   -4.0991 H   0  0  0  0  0  0  0  0  0  0  0  0
    1.7471    0.2850   -3.5884 C   0  0  0  0  0  0  0  0  0  0  0  0
    2.4938    0.0046   -4.3429 H   0  0  0  0  0  0  0  0  0  0  0  0
    0.8430    0.6143   -4.1297 H   0  0  0  0  0  0  0  0  0  0  0  0
    1.4525   -0.6311   -3.0547 H   0  0  0  0  0  0  0  0  0  0  0  0
    0.4209   -2.7950    1.0229 C   0  0  0  0  0  0  0  0  0  0  0  0
    0.3584   -2.7545    2.4388 C   0  0  0  0  0  0  0  0  0  0  0  0
   -0.3849   -3.7294    3.1127 C   0  0  0  0  0  0  0  0  0  0  0  0
   -1.0642   -4.7328    2.4052 C   0  0  0  0  0  0  0  0  0  0  0  0
   -1.0132   -4.7521    1.0058 C   0  0  0  0  0  0  0  0  0  0  0  0
   -0.2783   -3.7902    0.2994 C   0  0  0  0  0  0  0  0  0  0  0  0
   -0.4362   -3.7086    4.1995 H   0  0  0  0  0  0  0  0  0  0  0  0
   -1.5515   -5.5214    0.4554 H   0  0  0  0  0  0  0  0  0  0  0  0
    1.0498   -1.6773    3.2016 C   0  0  0  0  0  0  0  0  0  0  0  0
    0.8587   -1.7212    4.2810 H   0  0  0  0  0  0  0  0  0  0  0  0
    0.7128   -0.6753    2.8615 H   0  0  0  0  0  0  0  0  0  0  0  0
    2.1380   -1.7034    3.0588 H   0  0  0  0  0  0  0  0  0  0  0  0
   -1.8387   -5.7686    3.1527 C   0  0  0  0  0  0  0  0  0  0  0  0
   -2.3497   -6.4807    2.4915 H   0  0  0  0  0  0  0  0  0  0  0  0
   -2.6097   -5.3100    3.7890 H   0  0  0  0  0  0  0  0  0  0  0  0
   -1.1828   -6.3552    3.8129 H   0  0  0  0  0  0  0  0  0  0  0  0
   -0.2546   -3.8155   -1.1903 C   0  0  0  0  0  0  0  0  0  0  0  0
   -0.9342   -4.5631   -1.6186 H   0  0  0  0  0  0  0  0  0  0  0  0
    0.7496   -4.0204   -1.5831 H   0  0  0  0  0  0  0  0  0  0  0  0
   -0.5649   -2.8348   -1.6063 H   0  0  0  0  0  0  0  0  0  0  0  0
  2  1  1  0  0  0  0
  3  1  2  0  0  0  0
  4  3  1  0  0  0  0
  5  2  1  0  0  0  0
  6  5  1  0  0  0  0
  7  5  1  0  0  0  0
  8  7  1  0  0  0  0
  9  7  1  0  0  0  0
 10  7  1  0  0  0  0
 11  5  1  0  0  0  0
 12 11  1  0  0  0  0
 13 11  1  0  0  0  0
 14 11  1  0  0  0  0
 15  2  1  0  0  0  0
 15 24  1  0  0  0  0
 16 15  2  0  0  0  0
 17 16  1  0  0  0  0
 18 16  1  0  0  0  0
 19 18  1  0  0  0  0
 20 18  2  0  0  0  0
 21 20  1  0  0  0  0
 22 20  1  0  0  0  0
 22 24  2  0  0  0  0
 23 22  1  0  0  0  0
 24  3  1  0  0  0  0
  1 25  1  0  0  0  0
  1 26  1  0  0  0  0
 27 29  1  0  0  0  0
 28 29  1  0  0  0  0
 30 27  1  0  0  0  0
 30 31  1  0  0  0  0
 31 28  1  0  0  0  0
 32 30  1  0  0  0  0
 33 30  1  0  0  0  0
 34 31  1  0  0  0  0
 35 31  1  0  0  0  0
  1 29  1  0  0  0  0
 37 36  2  0  0  0  0
 38 37  1  0  0  0  0
 39 38  2  0  0  0  0
 40 39  1  0  0  0  0
 40 41  2  0  0  0  0
 41 36  1  0  0  0  0
 42 38  1  0  0  0  0
 43 40  1  0  0  0  0
 27 36  1  0  0  0  0
 45 44  1  0  0  0  0
 46 44  1  0  0  0  0
 47 44  1  0  0  0  0
 37 44  1  0  0  0  0
 49 48  1  0  0  0  0
 50 48  1  0  0  0  0
 51 48  1  0  0  0  0
 39 48  1  0  0  0  0
 53 52  1  0  0  0  0
 54 52  1  0  0  0  0
 55 52  1  0  0  0  0
 41 52  1  0  0  0  0
 57 56  2  0  0  0  0
 58 57  1  0  0  0  0
 59 58  2  0  0  0  0
 60 59  1  0  0  0  0
 60 61  2  0  0  0  0
 61 56  1  0  0  0  0
 62 58  1  0  0  0  0
 63 60  1  0  0  0  0
 28 56  1  0  0  0  0
 65 64  1  0  0  0  0
 66 64  1  0  0  0  0
 67 64  1  0  0  0  0
 57 64  1  0  0  0  0
 69 68  1  0  0  0  0
 70 68  1  0  0  0  0
 71 68  1  0  0  0  0
 59 68  1  0  0  0  0
 73 72  1  0  0  0  0
 74 72  1  0  0  0  0
 75 72  1  0  0  0  0
 61 72  1  0  0  0  0
M  END
> <FrozenCore-PM6_ENERGY>
59.024

> <RMSD_CONF_CG-CS>
0.542964

> <RMSD_CONF_GO-CS>
0.000000

> <UID>


> <DESCRIPTOR_DEFINITION_1>
desc1=( echo "1 * ( e( $hartree_to_kcalmol * ( ( $freeEnergyZ - $freeEnergyD ) - ( $freeEnergyX + 2*$G_Ethene - $freeEnergyD - 2*$G_Propene ) - $DDG_reference_HGII ) / $kT ) ) " | bc -l )

> <DESCRIPTOR_DEFINITION_2>
desc1=( echo "1 * ( e( $hartree_to_kcalmol * ( ( $freeEnergyZ - $freeEnergyD ) - ( $freeEnergyX + 2*$G_Ethene - $freeEnergyD - 2*$G_Propene ) - $DDG_reference_HGII ) / $kT ) ) " | bc -l )

> <DESCRIPTOR_DEFINITION_3>
desc1=( echo "1 * ( e( $hartree_to_kcalmol * ( ( $freeEnergyZ - $freeEnergyD ) - ( $freeEnergyX + 2*$G_Ethene - $freeEnergyD - 2*$G_Propene ) - $DDG_reference_HGII ) / $kT ) ) " | bc -l )

> <WEIGHT_DEFINITION_1>
w1=$( echo "1 / ( 1 + e( $hartree_to_kcalmol * ( ( ( $freeEnergyX + 2*$G_Ethene - $freeEnergyD - 2*$G_Propene ) ) - ( $DG_referenceProductionBarrier + $magnitude4 ) ) / $kT ) )" | bc -l )

> <WEIGHT_DEFINITION_2>
w1=$( echo "1 / ( 1 + e( $hartree_to_kcalmol * ( ( ( $freeEnergyX + 2*$G_Ethene - $freeEnergyD - 2*$G_Propene ) ) - ( $DG_referenceProductionBarrier + $magnitude4 ) ) / $kT ) )" | bc -l )

> <WEIGHT_DEFINITION_3>
w1=$( echo "1 / ( 1 + e( $hartree_to_kcalmol * ( ( ( $freeEnergyX + 2*$G_Ethene - $freeEnergyD - 2*$G_Propene ) ) - ( $DG_referenceProductionBarrier + $magnitude4 ) ) / $kT ) )" | bc -l )

> <WEIGHT_DEFINITION_4>
w1=$( echo "1 / ( 1 + e( $hartree_to_kcalmol * ( ( ( $freeEnergyX + 2*$G_Ethene - $freeEnergyD - 2*$G_Propene ) ) - ( $DG_referenceProductionBarrier + $magnitude4 ) ) / $kT ) )" | bc -l )

> <CALCULATION_OF_OVERALL_FITNESS>
fitness=$( echo "( $desc1 + $desc2 + $desc3 ) * ( $w1 * $w2 * $w3 * $w4 )" | bc -l )

> <freeEnergyA>
-6629.60236178

> <freeEnergyF>
-6629.58838728

> <freeEnergyE>
-2402.13790271

> <freeEnergyC>
-6284.34731635

> <freeEnergyL>
-924.272589731

> <freeEnergyX>
-6362.87789033

> <freeEnergyZ>
-6284.32604042

> <freeEnergyD>
-6284.36877563

> <G_Propene>
-117.738020895

> <G_Ethene>
-78.4716324751

> <G_HoveydaProd>
-502.204109499

> <G_SIMes>
-924.27249048

> <G_HG_RuCl2_SIMes>
-2402.13728523

> <DG_referenceProductionBarrier>
0.01468968

> <DG_referencePrecursorStabilityHII>
-0.0052201621

> <DG_referencePrecursorStabilityHI>
0.0117775312

> <DDG_referencePrecursorStability>
.0169976933

> <DG_referenceSynt>
0.0226072217

> <hartree_to_kcalmol>
627.49467516

> <boltzmann_constant>
0.0000000000000000000000138066

> <avogadro_number>
602214000000000000000000

> <jmol_to_kcalmol>
0.00023901

> <temp>
313.15

> <kT>
.6223089948281258706000000000

> <magnitude1>
1.43290809

> <magnitude2>
2.86581618

> <magnitude3>
4.29872427

> <magnitude4>
5.73163236

> <DFT_IDENTIFIER>
1723885166742

> <DFT_MACHINE>
158.39.114.73

> <XTB_IDENTIFIER>
NREC

> <XTB_MACHINE>
NREC

> <DESCRIPTOR_1>
.04139731067604800963

> <DESCRIPTOR_2>
11.968249989452876232

> <DESCRIPTOR_3>
0.0000000001

> <WEIGHT_1>
.99959368027178850137

> <WEIGHT_2>
.99999999354312441793

> <WEIGHT_3>
.99999999999253443126

> <WEIGHT_4>
.99992408461367845398

> <FITNESS>
12.00385611943918478300

$$$$
