
  CDK     08172403463D

 61 65  0  0  0  0  0  0  0  0999 V2000
    0.4622   -0.5927   -3.4251 H   0  0  0  0  0  0  0  0  0  0  0  0
    1.6695   -0.3602   -3.4753 C   0  0  0  0  0  0  0  0  0  0  0  0
    1.5119   -0.2463   -4.5722 H   0  0  0  0  0  0  0  0  0  0  0  0
    1.7767    0.7975   -2.5437 C   0  0  0  0  0  0  0  0  0  0  0  0
    2.7448    0.9482   -2.0379 H   0  0  0  0  0  0  0  0  0  0  0  0
    1.2557    1.7221   -2.8451 H   0  0  0  0  0  0  0  0  0  0  0  0
    0.5961   -0.6612   -1.6577 Ru  0  0  0  0  0  0  0  0  0  0  0  0
    2.1535   -1.6017   -2.8804 C   0  0  0  0  0  0  0  0  0  0  0  0
    3.0961   -1.6042   -2.3203 H   0  0  0  0  0  0  0  0  0  0  0  0
    1.8823   -2.5483   -3.3777 H   0  0  0  0  0  0  0  0  0  0  0  0
    2.4334   -1.0781    0.0881 Br  0  0  0  0  0  0  0  0  0  0  0  0
   -1.5818    0.0286   -2.8132 Br  0  0  0  0  0  0  0  0  0  0  0  0
   -0.6591   -1.0075    1.1398 N   0  0  0  0  0  0  0  0  0  0  0  0
   -0.9061    1.0501    0.3961 N   0  0  0  0  0  0  0  0  0  0  0  0
   -0.3445   -0.1567    0.1171 C   0  0  0  0  0  0  0  0  0  0  0  0
   -1.6706   -0.4162    2.0420 C   0  0  0  0  0  0  0  0  0  0  0  0
   -1.5445    1.0715    1.7290 C   0  0  0  0  0  0  0  0  0  0  0  0
   -1.4642   -0.6580    3.0988 H   0  0  0  0  0  0  0  0  0  0  0  0
   -2.6720   -0.8205    1.7769 H   0  0  0  0  0  0  0  0  0  0  0  0
   -2.5180    1.5927    1.6895 H   0  0  0  0  0  0  0  0  0  0  0  0
   -0.8837    1.6081    2.4450 H   0  0  0  0  0  0  0  0  0  0  0  0
   -0.2463   -2.3650    1.3211 C   0  0  0  0  0  0  0  0  0  0  0  0
    0.4301   -2.7087    2.5168 C   0  0  0  0  0  0  0  0  0  0  0  0
    0.7694   -4.0547    2.7276 C   0  0  0  0  0  0  0  0  0  0  0  0
    0.4849   -5.0550    1.7828 C   0  0  0  0  0  0  0  0  0  0  0  0
   -0.1355   -4.6686    0.5837 C   0  0  0  0  0  0  0  0  0  0  0  0
   -0.5074   -3.3378    0.3315 C   0  0  0  0  0  0  0  0  0  0  0  0
    1.3058   -4.3226    3.6515 H   0  0  0  0  0  0  0  0  0  0  0  0
   -0.3363   -5.4258   -0.1904 H   0  0  0  0  0  0  0  0  0  0  0  0
    0.8675   -1.6589    3.5052 C   0  0  0  0  0  0  0  0  0  0  0  0
    1.7342   -2.0212    4.0898 H   0  0  0  0  0  0  0  0  0  0  0  0
    0.0731   -1.3973    4.2380 H   0  0  0  0  0  0  0  0  0  0  0  0
    1.1722   -0.7334    2.9774 H   0  0  0  0  0  0  0  0  0  0  0  0
    0.8353   -6.4970    2.0495 C   0  0  0  0  0  0  0  0  0  0  0  0
    0.0150   -7.0133    2.5934 H   0  0  0  0  0  0  0  0  0  0  0  0
    1.7459   -6.5848    2.6742 H   0  0  0  0  0  0  0  0  0  0  0  0
    1.0065   -7.0553    1.1085 H   0  0  0  0  0  0  0  0  0  0  0  0
   -1.0794   -2.9512   -0.9962 C   0  0  0  0  0  0  0  0  0  0  0  0
   -1.4305   -3.8318   -1.5668 H   0  0  0  0  0  0  0  0  0  0  0  0
   -0.2703   -2.5143   -1.6688 H   0  0  0  0  0  0  0  0  0  0  0  0
   -1.8953   -2.2092   -0.9434 H   0  0  0  0  0  0  0  0  0  0  0  0
   -0.7239    2.2846   -0.3136 C   0  0  0  0  0  0  0  0  0  0  0  0
    0.5264    2.9461   -0.2537 C   0  0  0  0  0  0  0  0  0  0  0  0
    0.6700    4.1483   -0.9664 C   0  0  0  0  0  0  0  0  0  0  0  0
   -0.3909    4.7186   -1.6928 C   0  0  0  0  0  0  0  0  0  0  0  0
   -1.6381    4.0759   -1.6554 C   0  0  0  0  0  0  0  0  0  0  0  0
   -1.8346    2.8680   -0.9633 C   0  0  0  0  0  0  0  0  0  0  0  0
    1.6429    4.6635   -0.9345 H   0  0  0  0  0  0  0  0  0  0  0  0
   -2.4932    4.5238   -2.1855 H   0  0  0  0  0  0  0  0  0  0  0  0
    1.6566    2.4198    0.5864 C   0  0  0  0  0  0  0  0  0  0  0  0
    2.5009    3.1345    0.5971 H   0  0  0  0  0  0  0  0  0  0  0  0
    2.0286    1.4369    0.2327 H   0  0  0  0  0  0  0  0  0  0  0  0
    1.3358    2.2613    1.6376 H   0  0  0  0  0  0  0  0  0  0  0  0
   -0.1896    5.9836   -2.4885 C   0  0  0  0  0  0  0  0  0  0  0  0
   -1.1437    6.5223   -2.6488 H   0  0  0  0  0  0  0  0  0  0  0  0
    0.2331    5.7570   -3.4909 H   0  0  0  0  0  0  0  0  0  0  0  0
    0.5186    6.6726   -1.9868 H   0  0  0  0  0  0  0  0  0  0  0  0
   -3.2149    2.2674   -0.8885 C   0  0  0  0  0  0  0  0  0  0  0  0
   -3.7995    2.7327   -0.0640 H   0  0  0  0  0  0  0  0  0  0  0  0
   -3.1803    1.1752   -0.7274 H   0  0  0  0  0  0  0  0  0  0  0  0
   -3.7727    2.4490   -1.8267 H   0  0  0  0  0  0  0  0  0  0  0  0
  1  2  1  0  0  0  0
  1  7  1  0  0  0  0
  2  3  1  0  0  0  0
  2  4  1  0  0  0  0
  4  5  1  0  0  0  0
  6  4  1  0  0  0  0
  7  8  1  0  0  0  0
  7  4  1  0  0  0  0
  8  2  1  0  0  0  0
  8  9  1  0  0  0  0
 10  8  1  0  0  0  0
  7 11  1  0  0  0  0
  7 12  1  0  0  0  0
 13 15  1  0  0  0  0
 14 15  1  0  0  0  0
 16 13  1  0  0  0  0
 16 17  1  0  0  0  0
 17 14  1  0  0  0  0
 18 16  1  0  0  0  0
 19 16  1  0  0  0  0
 20 17  1  0  0  0  0
 21 17  1  0  0  0  0
 23 22  2  0  0  0  0
 24 23  1  0  0  0  0
 25 24  2  0  0  0  0
 26 25  1  0  0  0  0
 26 27  2  0  0  0  0
 27 22  1  0  0  0  0
 28 24  1  0  0  0  0
 29 26  1  0  0  0  0
 13 22  1  0  0  0  0
 31 30  1  0  0  0  0
 32 30  1  0  0  0  0
 33 30  1  0  0  0  0
 23 30  1  0  0  0  0
 35 34  1  0  0  0  0
 36 34  1  0  0  0  0
 37 34  1  0  0  0  0
 25 34  1  0  0  0  0
 39 38  1  0  0  0  0
 40 38  1  0  0  0  0
 41 38  1  0  0  0  0
 27 38  1  0  0  0  0
 43 42  2  0  0  0  0
 44 43  1  0  0  0  0
 45 44  2  0  0  0  0
 46 45  1  0  0  0  0
 46 47  2  0  0  0  0
 47 42  1  0  0  0  0
 48 44  1  0  0  0  0
 49 46  1  0  0  0  0
 14 42  1  0  0  0  0
 51 50  1  0  0  0  0
 52 50  1  0  0  0  0
 53 50  1  0  0  0  0
 43 50  1  0  0  0  0
 55 54  1  0  0  0  0
 56 54  1  0  0  0  0
 57 54  1  0  0  0  0
 45 54  1  0  0  0  0
 59 58  1  0  0  0  0
 60 58  1  0  0  0  0
 61 58  1  0  0  0  0
 47 58  1  0  0  0  0
  7 15  1  0  0  0  0
M  END
>  <DFT-ENERGY>
-6284.32603988

$$$$
