
  CDK     08132400123D

 56 60  0  0  0  0  0  0  0  0999 V2000
   -0.2515    3.9999   -1.6999 C   0  0  0  0  0  0  0  0  0  0  0  0
    0.8178    3.9311   -1.9668 H   0  0  0  0  0  0  0  0  0  0  0  0
   -0.6384    5.0047   -1.9825 H   0  0  0  0  0  0  0  0  0  0  0  0
   -0.7986    3.2511   -2.3024 H   0  0  0  0  0  0  0  0  0  0  0  0
   -0.4672    3.8053   -0.2171 C   0  0  0  0  0  0  0  0  0  0  0  0
   -1.5120    3.8782    0.1421 H   0  0  0  0  0  0  0  0  0  0  0  0
    0.5113    4.1836    0.7392 C   0  0  0  0  0  0  0  0  0  0  0  0
    1.5181    4.3899    0.3341 H   0  0  0  0  0  0  0  0  0  0  0  0
    0.1220    4.8592    2.0318 C   0  0  0  0  0  0  0  0  0  0  0  0
    0.9540    4.8996    2.7596 H   0  0  0  0  0  0  0  0  0  0  0  0
   -0.1736    5.9056    1.8018 H   0  0  0  0  0  0  0  0  0  0  0  0
   -0.7454    4.3466    2.4931 H   0  0  0  0  0  0  0  0  0  0  0  0
    1.3775    2.2893    1.7624 C   0  0  0  0  0  0  0  0  0  0  0  0
    1.0759    2.5086    2.8086 H   0  0  0  0  0  0  0  0  0  0  0  0
    2.4615    2.3445    1.5174 H   0  0  0  0  0  0  0  0  0  0  0  0
    0.1362    1.8062    0.5005 Ru  0  0  0  0  0  0  0  0  0  0  0  0
   -1.6589    1.8940    2.1165 Cl  0  0  0  0  0  0  0  0  0  0  0  0
    1.9098    1.6584   -1.1159 Cl  0  0  0  0  0  0  0  0  0  0  0  0
    0.1096   -0.1752    0.4117 C   0  0  0  0  0  0  0  0  0  0  0  0
   -0.4283   -0.9322   -0.5913 N   0  0  0  0  0  0  0  0  0  0  0  0
   -0.1269   -2.2694   -0.5099 N   0  0  0  0  0  0  0  0  0  0  0  0
    0.6089   -2.3714    0.5838 C   0  0  0  0  0  0  0  0  0  0  0  0
    0.7605   -1.1130    1.1835 N   0  0  0  0  0  0  0  0  0  0  0  0
   -1.2189   -0.4111   -1.6442 C   0  0  0  0  0  0  0  0  0  0  0  0
   -2.7317    0.7006   -3.7128 C   0  0  0  0  0  0  0  0  0  0  0  0
   -1.2677   -1.0642   -2.8850 C   0  0  0  0  0  0  0  0  0  0  0  0
   -1.9333    0.7773   -1.4166 C   0  0  0  0  0  0  0  0  0  0  0  0
   -2.6828    1.3341   -2.4622 C   0  0  0  0  0  0  0  0  0  0  0  0
   -2.0297   -0.5000   -3.9150 C   0  0  0  0  0  0  0  0  0  0  0  0
   -3.2490    2.2591   -2.2840 H   0  0  0  0  0  0  0  0  0  0  0  0
   -2.0681   -1.0012   -4.8926 H   0  0  0  0  0  0  0  0  0  0  0  0
   -1.9818    1.2145   -0.3978 H   0  0  0  0  0  0  0  0  0  0  0  0
   -0.7035   -1.9947   -3.0240 H   0  0  0  0  0  0  0  0  0  0  0  0
   -3.3251    1.1361   -4.5289 H   0  0  0  0  0  0  0  0  0  0  0  0
    1.5449   -0.7926    2.3394 C   0  0  0  0  0  0  0  0  0  0  0  0
    3.0642   -0.2033    4.6005 C   0  0  0  0  0  0  0  0  0  0  0  0
    0.9047   -0.2791    3.4784 C   0  0  0  0  0  0  0  0  0  0  0  0
    2.9321   -0.9950    2.3050 C   0  0  0  0  0  0  0  0  0  0  0  0
    3.6900   -0.7029    3.4470 C   0  0  0  0  0  0  0  0  0  0  0  0
    1.6771    0.0150    4.6113 C   0  0  0  0  0  0  0  0  0  0  0  0
   -0.1764   -0.0809    3.4488 H   0  0  0  0  0  0  0  0  0  0  0  0
    3.4030   -1.3714    1.3873 H   0  0  0  0  0  0  0  0  0  0  0  0
    4.7778   -0.8592    3.4309 H   0  0  0  0  0  0  0  0  0  0  0  0
    1.1871    0.4228    5.5068 H   0  0  0  0  0  0  0  0  0  0  0  0
    3.6633    0.0259    5.4935 H   0  0  0  0  0  0  0  0  0  0  0  0
    1.1522   -3.6436    1.0719 C   0  0  0  0  0  0  0  0  0  0  0  0
    2.1401   -6.1463    1.9086 C   0  0  0  0  0  0  0  0  0  0  0  0
    1.3509   -3.9075    2.4448 C   0  0  0  0  0  0  0  0  0  0  0  0
    1.4419   -4.6514    0.1247 C   0  0  0  0  0  0  0  0  0  0  0  0
    1.9326   -5.8924    0.5429 C   0  0  0  0  0  0  0  0  0  0  0  0
    1.8433   -5.1531    2.8541 C   0  0  0  0  0  0  0  0  0  0  0  0
    1.1059   -3.1462    3.1961 H   0  0  0  0  0  0  0  0  0  0  0  0
    1.2776   -4.4391   -0.9401 H   0  0  0  0  0  0  0  0  0  0  0  0
    2.1599   -6.6668   -0.2036 H   0  0  0  0  0  0  0  0  0  0  0  0
    1.9908   -5.3494    3.9256 H   0  0  0  0  0  0  0  0  0  0  0  0
    2.5307   -7.1205    2.2359 H   0  0  0  0  0  0  0  0  0  0  0  0
  1  2  1  0  0  0  0
  1  5  1  0  0  0  0
  1  3  1  0  0  0  0
  1  4  1  0  0  0  0
  5  6  1  0  0  0  0
  5 16  1  0  0  0  0
  5  7  1  0  0  0  0
  7  9  1  0  0  0  0
  7  8  1  0  0  0  0
  9 10  1  0  0  0  0
  9 11  1  0  0  0  0
  9 12  1  0  0  0  0
 13 14  1  0  0  0  0
 13 15  1  0  0  0  0
  7 13  1  0  0  0  0
 13 16  1  0  0  0  0
 16 17  1  0  0  0  0
 16 18  1  0  0  0  0
 19 20  1  0  0  0  0
 19 23  1  0  0  0  0
 20 21  1  0  0  0  0
 22 23  1  0  0  0  0
 24 27  2  0  0  0  0
 27 28  1  0  0  0  0
 25 28  2  0  0  0  0
 25 29  1  0  0  0  0
 26 29  2  0  0  0  0
 24 26  1  0  0  0  0
 28 30  1  0  0  0  0
 29 31  1  0  0  0  0
 20 24  1  0  0  0  0
 21 22  2  0  0  0  0
 27 32  1  0  0  0  0
 26 33  1  0  0  0  0
 25 34  1  0  0  0  0
 35 38  2  0  0  0  0
 38 39  1  0  0  0  0
 36 39  2  0  0  0  0
 36 40  1  0  0  0  0
 37 40  2  0  0  0  0
 35 37  1  0  0  0  0
 39 43  1  0  0  0  0
 40 44  1  0  0  0  0
 36 45  1  0  0  0  0
 37 41  1  0  0  0  0
 38 42  1  0  0  0  0
 23 35  1  0  0  0  0
 46 49  2  0  0  0  0
 49 50  1  0  0  0  0
 47 50  2  0  0  0  0
 47 51  1  0  0  0  0
 48 51  2  0  0  0  0
 46 48  1  0  0  0  0
 50 54  1  0  0  0  0
 51 55  1  0  0  0  0
 47 56  1  0  0  0  0
 48 52  1  0  0  0  0
 49 53  1  0  0  0  0
 22 46  1  0  0  0  0
 16 19  1  0  0  0  0
M  END
>  <DFT-ENERGY>
-2145.45244219

$$$$
