
  CDK     08132402293D

 50 55  0  0  0  0  0  0  0  0999 V2000
    1.4246   -1.2995   -2.8423 H   0  0  0  0  0  0  0  0  0  0  0  0
    2.6473   -1.4352   -2.8169 C   0  0  0  0  0  0  0  0  0  0  0  0
    2.6528   -1.4429   -3.9289 H   0  0  0  0  0  0  0  0  0  0  0  0
    2.7840   -2.6637   -1.9792 C   0  0  0  0  0  0  0  0  0  0  0  0
    3.7027   -2.7749   -1.3800 H   0  0  0  0  0  0  0  0  0  0  0  0
    2.3903   -3.5981   -2.4153 H   0  0  0  0  0  0  0  0  0  0  0  0
    1.4104   -1.4110   -1.0721 Ru  0  0  0  0  0  0  0  0  0  0  0  0
    2.9429   -0.2375   -2.0182 C   0  0  0  0  0  0  0  0  0  0  0  0
    3.8395   -0.2298   -1.3861 H   0  0  0  0  0  0  0  0  0  0  0  0
    2.6192    0.7402   -2.4143 H   0  0  0  0  0  0  0  0  0  0  0  0
    2.9565   -1.0645    0.7882 Cl  0  0  0  0  0  0  0  0  0  0  0  0
   -0.4677   -2.4773   -2.1284 Cl  0  0  0  0  0  0  0  0  0  0  0  0
    0.4158   -1.8414    0.6646 C   0  0  0  0  0  0  0  0  0  0  0  0
    0.2258   -2.8597    1.5408 N   0  0  0  0  0  0  0  0  0  0  0  0
   -0.4831   -2.4821    2.6615 N   0  0  0  0  0  0  0  0  0  0  0  0
   -0.7638   -1.2002    2.4726 C   0  0  0  0  0  0  0  0  0  0  0  0
   -0.2519   -0.7927    1.2440 N   0  0  0  0  0  0  0  0  0  0  0  0
    0.7756   -4.1741    1.4656 C   0  0  0  0  0  0  0  0  0  0  0  0
    1.9058   -6.7219    1.3408 C   0  0  0  0  0  0  0  0  0  0  0  0
    1.1276   -4.8290    2.6561 C   0  0  0  0  0  0  0  0  0  0  0  0
    0.9631   -4.7780    0.2133 C   0  0  0  0  0  0  0  0  0  0  0  0
    1.5390   -6.0546    0.1622 C   0  0  0  0  0  0  0  0  0  0  0  0
    1.6913   -6.1088    2.5855 C   0  0  0  0  0  0  0  0  0  0  0  0
    1.6880   -6.5355   -0.8150 H   0  0  0  0  0  0  0  0  0  0  0  0
    1.9734   -6.6265    3.5133 H   0  0  0  0  0  0  0  0  0  0  0  0
    0.6375   -4.2571   -0.6964 H   0  0  0  0  0  0  0  0  0  0  0  0
    0.9595   -4.3262    3.6164 H   0  0  0  0  0  0  0  0  0  0  0  0
    2.3540   -7.7246    1.2910 H   0  0  0  0  0  0  0  0  0  0  0  0
   -0.0939    0.4998    0.6354 C   0  0  0  0  0  0  0  0  0  0  0  0
    0.4203    2.9051   -0.6745 C   0  0  0  0  0  0  0  0  0  0  0  0
   -0.5359    0.6649   -0.6908 C   0  0  0  0  0  0  0  0  0  0  0  0
    0.6030    1.5118    1.3140 C   0  0  0  0  0  0  0  0  0  0  0  0
    0.8470    2.7202    0.6538 C   0  0  0  0  0  0  0  0  0  0  0  0
   -0.2665    1.8834   -1.3417 C   0  0  0  0  0  0  0  0  0  0  0  0
   -1.1121   -0.1316   -1.1827 H   0  0  0  0  0  0  0  0  0  0  0  0
    0.9715    1.3305    2.3313 H   0  0  0  0  0  0  0  0  0  0  0  0
    1.3986    3.5174    1.1714 H   0  0  0  0  0  0  0  0  0  0  0  0
   -0.6080    2.0248   -2.3769 H   0  0  0  0  0  0  0  0  0  0  0  0
    0.6284    3.8544   -1.1883 H   0  0  0  0  0  0  0  0  0  0  0  0
   -1.5269   -0.3796    3.4150 C   0  0  0  0  0  0  0  0  0  0  0  0
   -3.0027    1.1270    5.2808 C   0  0  0  0  0  0  0  0  0  0  0  0
   -2.2459    0.7615    2.9979 C   0  0  0  0  0  0  0  0  0  0  0  0
   -1.5645   -0.7654    4.7735 C   0  0  0  0  0  0  0  0  0  0  0  0
   -2.2984   -0.0149    5.6973 C   0  0  0  0  0  0  0  0  0  0  0  0
   -2.9765    1.5084    3.9308 C   0  0  0  0  0  0  0  0  0  0  0  0
   -2.2479    1.0581    1.9409 H   0  0  0  0  0  0  0  0  0  0  0  0
   -1.0075   -1.6588    5.0856 H   0  0  0  0  0  0  0  0  0  0  0  0
   -2.3181   -0.3206    6.7530 H   0  0  0  0  0  0  0  0  0  0  0  0
   -3.5358    2.3936    3.5963 H   0  0  0  0  0  0  0  0  0  0  0  0
   -3.5755    1.7182    6.0095 H   0  0  0  0  0  0  0  0  0  0  0  0
  1  2  1  0  0  0  0
  1  7  1  0  0  0  0
  2  3  1  0  0  0  0
  2  4  1  0  0  0  0
  4  5  1  0  0  0  0
  4  6  1  0  0  0  0
  7  8  1  0  0  0  0
  4  7  1  0  0  0  0
  2  8  1  0  0  0  0
  8  9  1  0  0  0  0
  8 10  1  0  0  0  0
  7 11  1  0  0  0  0
  7 12  1  0  0  0  0
 13 14  1  0  0  0  0
 13 17  1  0  0  0  0
 14 15  1  0  0  0  0
 16 17  1  0  0  0  0
 18 21  2  0  0  0  0
 21 22  1  0  0  0  0
 19 22  2  0  0  0  0
 19 23  1  0  0  0  0
 20 23  2  0  0  0  0
 18 20  1  0  0  0  0
 22 24  1  0  0  0  0
 23 25  1  0  0  0  0
 14 18  1  0  0  0  0
 15 16  2  0  0  0  0
 21 26  1  0  0  0  0
 20 27  1  0  0  0  0
 19 28  1  0  0  0  0
 29 32  2  0  0  0  0
 32 33  1  0  0  0  0
 30 33  2  0  0  0  0
 30 34  1  0  0  0  0
 31 34  2  0  0  0  0
 29 31  1  0  0  0  0
 33 37  1  0  0  0  0
 34 38  1  0  0  0  0
 30 39  1  0  0  0  0
 31 35  1  0  0  0  0
 32 36  1  0  0  0  0
 17 29  1  0  0  0  0
 40 43  2  0  0  0  0
 43 44  1  0  0  0  0
 41 44  2  0  0  0  0
 41 45  1  0  0  0  0
 42 45  2  0  0  0  0
 40 42  1  0  0  0  0
 44 48  1  0  0  0  0
 45 49  1  0  0  0  0
 41 50  1  0  0  0  0
 42 46  1  0  0  0  0
 43 47  1  0  0  0  0
 16 40  1  0  0  0  0
  7 13  1  0  0  0  0
M  END
>  <DFT-ENERGY>
-2066.90692687

$$$$
