
  CDK     08132403383D

 50 54  0  0  0  0  0  0  0  0999 V2000
   -1.1733    1.8583    0.2968 Ru  0  0  0  0  0  0  0  0  0  0  0  0
   -1.0474    3.2837   -1.0366 C   0  0  0  0  0  0  0  0  0  0  0  0
   -1.3556    3.0072   -2.0606 H   0  0  0  0  0  0  0  0  0  0  0  0
   -2.2500    3.7792   -0.1349 C   0  0  0  0  0  0  0  0  0  0  0  0
   -3.1230    3.8471   -0.8088 H   0  0  0  0  0  0  0  0  0  0  0  0
   -2.6933    2.8373    1.0534 C   0  0  0  0  0  0  0  0  0  0  0  0
   -2.5209    3.2889    2.0470 H   0  0  0  0  0  0  0  0  0  0  0  0
   -3.6803    2.3681    0.8945 H   0  0  0  0  0  0  0  0  0  0  0  0
   -1.9372    4.7389    0.3147 H   0  0  0  0  0  0  0  0  0  0  0  0
   -0.1526    3.9258   -0.9518 H   0  0  0  0  0  0  0  0  0  0  0  0
   -2.6764    0.6916   -1.1524 Cl  0  0  0  0  0  0  0  0  0  0  0  0
    0.3409    3.0246    1.7392 Cl  0  0  0  0  0  0  0  0  0  0  0  0
   -0.2926    0.0968    0.5503 C   0  0  0  0  0  0  0  0  0  0  0  0
   -0.5618   -0.9545    1.3696 N   0  0  0  0  0  0  0  0  0  0  0  0
    0.1443   -2.0907    1.0448 N   0  0  0  0  0  0  0  0  0  0  0  0
    0.8887   -1.7381    0.0084 C   0  0  0  0  0  0  0  0  0  0  0  0
    0.6570   -0.3953   -0.3067 N   0  0  0  0  0  0  0  0  0  0  0  0
   -1.5028   -0.9554    2.4376 C   0  0  0  0  0  0  0  0  0  0  0  0
   -3.4025   -0.9191    4.4791 C   0  0  0  0  0  0  0  0  0  0  0  0
   -2.1947   -2.1352    2.7495 C   0  0  0  0  0  0  0  0  0  0  0  0
   -1.7248    0.2364    3.1458 C   0  0  0  0  0  0  0  0  0  0  0  0
   -2.6912    0.2478    4.1607 C   0  0  0  0  0  0  0  0  0  0  0  0
   -3.1438   -2.1089    3.7789 C   0  0  0  0  0  0  0  0  0  0  0  0
   -2.8717    1.1777    4.7184 H   0  0  0  0  0  0  0  0  0  0  0  0
   -3.6951   -3.0267    4.0279 H   0  0  0  0  0  0  0  0  0  0  0  0
   -1.1202    1.1316    2.9271 H   0  0  0  0  0  0  0  0  0  0  0  0
   -1.9849   -3.0491    2.1800 H   0  0  0  0  0  0  0  0  0  0  0  0
   -4.1550   -0.9050    5.2802 H   0  0  0  0  0  0  0  0  0  0  0  0
    1.1210    0.3885   -1.4193 C   0  0  0  0  0  0  0  0  0  0  0  0
    1.9375    1.9760   -3.5534 C   0  0  0  0  0  0  0  0  0  0  0  0
    1.8957    1.5298   -1.1621 C   0  0  0  0  0  0  0  0  0  0  0  0
    0.7300    0.0368   -2.7190 C   0  0  0  0  0  0  0  0  0  0  0  0
    1.1518    0.8353   -3.7892 C   0  0  0  0  0  0  0  0  0  0  0  0
    2.3019    2.3249   -2.2440 C   0  0  0  0  0  0  0  0  0  0  0  0
    2.1394    1.8026   -0.1258 H   0  0  0  0  0  0  0  0  0  0  0  0
    0.0846   -0.8371   -2.8744 H   0  0  0  0  0  0  0  0  0  0  0  0
    0.8491    0.5740   -4.8128 H   0  0  0  0  0  0  0  0  0  0  0  0
    2.9020    3.2262   -2.0558 H   0  0  0  0  0  0  0  0  0  0  0  0
    2.2587    2.6029   -4.3976 H   0  0  0  0  0  0  0  0  0  0  0  0
    1.8172   -2.6427   -0.6739 C   0  0  0  0  0  0  0  0  0  0  0  0
    3.5714   -4.4628   -1.9160 C   0  0  0  0  0  0  0  0  0  0  0  0
    2.9547   -2.1739   -1.3667 C   0  0  0  0  0  0  0  0  0  0  0  0
    1.5739   -4.0328   -0.6006 C   0  0  0  0  0  0  0  0  0  0  0  0
    2.4469   -4.9336   -1.2180 C   0  0  0  0  0  0  0  0  0  0  0  0
    3.8223   -3.0842   -1.9836 C   0  0  0  0  0  0  0  0  0  0  0  0
    3.1725   -1.0993   -1.4116 H   0  0  0  0  0  0  0  0  0  0  0  0
    0.6896   -4.3873   -0.0546 H   0  0  0  0  0  0  0  0  0  0  0  0
    2.2459   -6.0128   -1.1587 H   0  0  0  0  0  0  0  0  0  0  0  0
    4.7068   -2.7097   -2.5180 H   0  0  0  0  0  0  0  0  0  0  0  0
    4.2541   -5.1722   -2.4052 H   0  0  0  0  0  0  0  0  0  0  0  0
  2  4  1  0  0  0  0
  2  1  1  0  0  0  0
  2  3  1  0  0  0  0
  4  6  1  0  0  0  0
  4  5  1  0  0  0  0
  6  1  1  0  0  0  0
  6  8  1  0  0  0  0
  7  6  1  0  0  0  0
  9  4  1  0  0  0  0
 10  2  1  0  0  0  0
  1 11  1  0  0  0  0
  1 12  1  0  0  0  0
 13 14  1  0  0  0  0
 13 17  1  0  0  0  0
 14 15  1  0  0  0  0
 16 17  1  0  0  0  0
 18 21  2  0  0  0  0
 21 22  1  0  0  0  0
 19 22  2  0  0  0  0
 19 23  1  0  0  0  0
 20 23  2  0  0  0  0
 18 20  1  0  0  0  0
 22 24  1  0  0  0  0
 23 25  1  0  0  0  0
 14 18  1  0  0  0  0
 15 16  2  0  0  0  0
 21 26  1  0  0  0  0
 20 27  1  0  0  0  0
 19 28  1  0  0  0  0
 29 32  2  0  0  0  0
 32 33  1  0  0  0  0
 30 33  2  0  0  0  0
 30 34  1  0  0  0  0
 31 34  2  0  0  0  0
 29 31  1  0  0  0  0
 33 37  1  0  0  0  0
 34 38  1  0  0  0  0
 30 39  1  0  0  0  0
 31 35  1  0  0  0  0
 32 36  1  0  0  0  0
 17 29  1  0  0  0  0
 40 43  2  0  0  0  0
 43 44  1  0  0  0  0
 41 44  2  0  0  0  0
 41 45  1  0  0  0  0
 42 45  2  0  0  0  0
 40 42  1  0  0  0  0
 44 48  1  0  0  0  0
 45 49  1  0  0  0  0
 41 50  1  0  0  0  0
 42 46  1  0  0  0  0
 43 47  1  0  0  0  0
 16 40  1  0  0  0  0
  1 13  1  0  0  0  0
M  END
>  <DFT-ENERGY>
-2066.94245648

$$$$
