
  CDK     04202404043D

 64 67  0  0  0  0  0  0  0  0999 V2000
    2.2246    1.4564   -0.2447 Ru  0  0  0  0  0  0  0  0  0  0  0  0
    3.6295    1.6822   -1.5885 C   0  0  0  0  0  0  0  0  0  0  0  0
    3.3361    2.2046   -2.5166 H   0  0  0  0  0  0  0  0  0  0  0  0
    4.0882    2.6675   -0.4408 C   0  0  0  0  0  0  0  0  0  0  0  0
    4.1336    3.6658   -0.9144 H   0  0  0  0  0  0  0  0  0  0  0  0
    3.1233    2.8417    0.8024 C   0  0  0  0  0  0  0  0  0  0  0  0
    3.5838    2.4948    1.7460 H   0  0  0  0  0  0  0  0  0  0  0  0
    2.6318    3.8308    0.8313 H   0  0  0  0  0  0  0  0  0  0  0  0
    5.0482    2.2832   -0.0506 H   0  0  0  0  0  0  0  0  0  0  0  0
    4.3088    0.8176   -1.7029 H   0  0  0  0  0  0  0  0  0  0  0  0
    1.0631    3.2312   -1.3678 Cl  0  0  0  0  0  0  0  0  0  0  0  0
    3.5762   -0.1958    0.8268 Cl  0  0  0  0  0  0  0  0  0  0  0  0
    0.2047    0.2117   -0.0407 P   0  0  0  0  0  0  0  0  0  0  0  0
    0.4205   -1.5488   -0.6369 C   0  0  0  0  0  0  0  0  0  0  0  0
   -0.6118   -1.9152   -0.8298 H   0  0  0  0  0  0  0  0  0  0  0  0
    1.1835   -1.4798   -1.9783 C   0  0  0  0  0  0  0  0  0  0  0  0
    0.6760   -0.7894   -2.6848 H   0  0  0  0  0  0  0  0  0  0  0  0
    2.1909   -1.0504   -1.7779 H   0  0  0  0  0  0  0  0  0  0  0  0
    0.7044    0.0672    2.7761 C   0  0  0  0  0  0  0  0  0  0  0  0
    1.1636   -0.9363    2.6676 H   0  0  0  0  0  0  0  0  0  0  0  0
    1.5290    0.7844    2.5955 H   0  0  0  0  0  0  0  0  0  0  0  0
    2.0127   -3.8435   -1.6303 C   0  0  0  0  0  0  0  0  0  0  0  0
    3.0497   -3.4949   -1.4274 H   0  0  0  0  0  0  0  0  0  0  0  0
    2.0967   -4.8524   -2.0850 H   0  0  0  0  0  0  0  0  0  0  0  0
   -1.2003    0.9008   -1.0994 C   0  0  0  0  0  0  0  0  0  0  0  0
   -0.6354    1.3626   -1.9384 H   0  0  0  0  0  0  0  0  0  0  0  0
   -0.4060    0.2584    1.7278 C   0  0  0  0  0  0  0  0  0  0  0  0
   -0.7710    1.3058    1.8188 H   0  0  0  0  0  0  0  0  0  0  0  0
    1.0998   -2.5242    0.3371 C   0  0  0  0  0  0  0  0  0  0  0  0
    2.0994   -2.1283    0.6093 H   0  0  0  0  0  0  0  0  0  0  0  0
    0.5144   -2.6059    1.2744 H   0  0  0  0  0  0  0  0  0  0  0  0
   -1.0400   -0.7140    4.4485 C   0  0  0  0  0  0  0  0  0  0  0  0
   -0.6810   -1.7671    4.4015 H   0  0  0  0  0  0  0  0  0  0  0  0
   -1.4461   -0.5651    5.4705 H   0  0  0  0  0  0  0  0  0  0  0  0
    1.2400   -3.9121   -0.3075 C   0  0  0  0  0  0  0  0  0  0  0  0
    1.7459   -4.5983    0.4028 H   0  0  0  0  0  0  0  0  0  0  0  0
    0.2290   -4.3417   -0.4960 H   0  0  0  0  0  0  0  0  0  0  0  0
    1.3383   -2.8715   -2.6054 C   0  0  0  0  0  0  0  0  0  0  0  0
    0.3327   -3.2627   -2.8822 H   0  0  0  0  0  0  0  0  0  0  0  0
    1.9172   -2.7946   -3.5491 H   0  0  0  0  0  0  0  0  0  0  0  0
    0.1388    0.2330    4.1932 C   0  0  0  0  0  0  0  0  0  0  0  0
   -0.2019    1.2845    4.3308 H   0  0  0  0  0  0  0  0  0  0  0  0
    0.9447    0.0637    4.9366 H   0  0  0  0  0  0  0  0  0  0  0  0
   -1.6016   -0.6826    1.9745 C   0  0  0  0  0  0  0  0  0  0  0  0
   -2.4068   -0.4910    1.2373 H   0  0  0  0  0  0  0  0  0  0  0  0
   -1.2813   -1.7363    1.8283 H   0  0  0  0  0  0  0  0  0  0  0  0
   -1.9315    2.0525   -0.3839 C   0  0  0  0  0  0  0  0  0  0  0  0
   -2.5178    1.6527    0.4732 H   0  0  0  0  0  0  0  0  0  0  0  0
   -1.1910    2.7761    0.0097 H   0  0  0  0  0  0  0  0  0  0  0  0
   -2.2032   -0.1089   -1.6851 C   0  0  0  0  0  0  0  0  0  0  0  0
   -2.7778   -0.6034   -0.8706 H   0  0  0  0  0  0  0  0  0  0  0  0
   -1.6819   -0.9137   -2.2409 H   0  0  0  0  0  0  0  0  0  0  0  0
   -2.1423   -0.5104    3.4024 C   0  0  0  0  0  0  0  0  0  0  0  0
   -2.9821   -1.2163    3.5710 H   0  0  0  0  0  0  0  0  0  0  0  0
   -2.5647    0.5144    3.5082 H   0  0  0  0  0  0  0  0  0  0  0  0
   -3.8949    1.7764   -1.9578 C   0  0  0  0  0  0  0  0  0  0  0  0
   -4.5543    1.3829   -1.1506 H   0  0  0  0  0  0  0  0  0  0  0  0
   -4.5595    2.2922   -2.6819 H   0  0  0  0  0  0  0  0  0  0  0  0
   -3.1778    0.6049   -2.6381 C   0  0  0  0  0  0  0  0  0  0  0  0
   -2.6034    0.9868   -3.5116 H   0  0  0  0  0  0  0  0  0  0  0  0
   -3.9111   -0.1266   -3.0374 H   0  0  0  0  0  0  0  0  0  0  0  0
   -2.8875    2.7607   -1.3529 C   0  0  0  0  0  0  0  0  0  0  0  0
   -3.4132    3.5841   -0.8265 H   0  0  0  0  0  0  0  0  0  0  0  0
   -2.2860    3.2325   -2.1607 H   0  0  0  0  0  0  0  0  0  0  0  0
  2  4  1  0  0  0  0
  2  1  1  0  0  0  0
  2  3  1  0  0  0  0
  4  6  1  0  0  0  0
  4  5  1  0  0  0  0
  6  1  1  0  0  0  0
  6  8  1  0  0  0  0
  7  6  1  0  0  0  0
  9  4  1  0  0  0  0
 10  2  1  0  0  0  0
  1 11  1  0  0  0  0
  1 12  1  0  0  0  0
 13 14  1  0  0  0  0
 14 15  1  0  0  0  0
 14 16  1  0  0  0  0
 16 17  1  0  0  0  0
 16 18  1  0  0  0  0
 19 20  1  0  0  0  0
 19 21  1  0  0  0  0
 22 23  1  0  0  0  0
 22 24  1  0  0  0  0
 13 25  1  0  0  0  0
 25 26  1  0  0  0  0
 13 27  1  0  0  0  0
 27 28  1  0  0  0  0
 14 29  1  0  0  0  0
 29 30  1  0  0  0  0
 29 31  1  0  0  0  0
 32 33  1  0  0  0  0
 32 34  1  0  0  0  0
 22 35  1  0  0  0  0
 35 36  1  0  0  0  0
 35 37  1  0  0  0  0
 16 38  1  0  0  0  0
 38 39  1  0  0  0  0
 38 40  1  0  0  0  0
 19 41  1  0  0  0  0
 41 42  1  0  0  0  0
 41 43  1  0  0  0  0
 27 44  1  0  0  0  0
 44 45  1  0  0  0  0
 44 46  1  0  0  0  0
 25 47  1  0  0  0  0
 47 48  1  0  0  0  0
 47 49  1  0  0  0  0
 25 50  1  0  0  0  0
 50 51  1  0  0  0  0
 50 52  1  0  0  0  0
 32 53  1  0  0  0  0
 53 54  1  0  0  0  0
 53 55  1  0  0  0  0
 56 57  1  0  0  0  0
 56 58  1  0  0  0  0
 50 59  1  0  0  0  0
 59 60  1  0  0  0  0
 59 61  1  0  0  0  0
 47 62  1  0  0  0  0
 62 63  1  0  0  0  0
 62 64  1  0  0  0  0
 19 27  1  0  0  0  0
 22 38  1  0  0  0  0
 29 35  1  0  0  0  0
 32 41  1  0  0  0  0
 44 53  1  0  0  0  0
 56 59  1  0  0  0  0
 56 62  1  0  0  0  0
  1 13  1  0  0  0  0
M  END
>  <DFT-ENERGY>
-2178.7041453

$$$$
