
  CDK     02032401473D

 65 68  0  0  0  0  0  0  0  0999 V2000
   -0.0970   -1.7517    2.7669 C   0  0  0  0  0  0  0  0  0  0  0  0
    0.9448   -2.1168    2.7413 H   0  0  0  0  0  0  0  0  0  0  0  0
   -0.6418   -2.2276    3.6128 H   0  0  0  0  0  0  0  0  0  0  0  0
   -0.6057   -2.0920    1.8396 H   0  0  0  0  0  0  0  0  0  0  0  0
   -0.1759   -0.2509    2.9226 C   0  0  0  0  0  0  0  0  0  0  0  0
   -1.1945    0.1606    3.0486 H   0  0  0  0  0  0  0  0  0  0  0  0
    0.8718    0.5661    3.4267 C   0  0  0  0  0  0  0  0  0  0  0  0
    1.8600    0.0918    3.5571 H   0  0  0  0  0  0  0  0  0  0  0  0
    0.5403    1.7588    4.2959 C   0  0  0  0  0  0  0  0  0  0  0  0
    1.3865    2.4643    4.3981 H   0  0  0  0  0  0  0  0  0  0  0  0
    0.2863    1.3922    5.3139 H   0  0  0  0  0  0  0  0  0  0  0  0
   -0.3401    2.3008    3.8980 H   0  0  0  0  0  0  0  0  0  0  0  0
    1.5962    1.9378    1.7006 C   0  0  0  0  0  0  0  0  0  0  0  0
    1.1419    2.9232    1.9395 H   0  0  0  0  0  0  0  0  0  0  0  0
    2.6962    1.8310    1.8263 H   0  0  0  0  0  0  0  0  0  0  0  0
    0.5898    0.5516    1.0655 Ru  0  0  0  0  0  0  0  0  0  0  0  0
   -1.3608    1.9632    1.1868 Cl  0  0  0  0  0  0  0  0  0  0  0  0
    2.5607   -0.8320    1.0504 Cl  0  0  0  0  0  0  0  0  0  0  0  0
   -0.1155   -0.3916   -1.7318 N   0  0  0  0  0  0  0  0  0  0  0  0
    0.9812    1.4798   -1.8483 N   0  0  0  0  0  0  0  0  0  0  0  0
    0.4946    0.5593   -0.9537 C   0  0  0  0  0  0  0  0  0  0  0  0
   -0.0155   -0.0724   -3.0879 C   0  0  0  0  0  0  0  0  0  0  0  0
   -0.4486   -0.7112   -3.8600 H   0  0  0  0  0  0  0  0  0  0  0  0
    0.6790    1.1033   -3.1605 C   0  0  0  0  0  0  0  0  0  0  0  0
    0.9914    1.7108   -4.0120 H   0  0  0  0  0  0  0  0  0  0  0  0
   -0.7428   -1.5659   -1.1798 C   0  0  0  0  0  0  0  0  0  0  0  0
    0.0198   -2.7512   -1.0732 C   0  0  0  0  0  0  0  0  0  0  0  0
   -0.5969   -3.8646   -0.4781 C   0  0  0  0  0  0  0  0  0  0  0  0
   -0.0165   -4.7944   -0.3749 H   0  0  0  0  0  0  0  0  0  0  0  0
   -1.9252   -3.8218   -0.0158 C   0  0  0  0  0  0  0  0  0  0  0  0
   -2.6624   -2.6388   -0.1989 C   0  0  0  0  0  0  0  0  0  0  0  0
   -3.7160   -2.6022    0.1182 H   0  0  0  0  0  0  0  0  0  0  0  0
   -2.0994   -1.4937   -0.7920 C   0  0  0  0  0  0  0  0  0  0  0  0
    1.4366   -2.8156   -1.5710 C   0  0  0  0  0  0  0  0  0  0  0  0
    1.5236   -2.4411   -2.6110 H   0  0  0  0  0  0  0  0  0  0  0  0
    1.8152   -3.8541   -1.5412 H   0  0  0  0  0  0  0  0  0  0  0  0
    2.0919   -2.1843   -0.9324 H   0  0  0  0  0  0  0  0  0  0  0  0
   -2.5377   -5.0158    0.6717 C   0  0  0  0  0  0  0  0  0  0  0  0
   -2.2817   -5.0187    1.7530 H   0  0  0  0  0  0  0  0  0  0  0  0
   -2.1628   -5.9679    0.2473 H   0  0  0  0  0  0  0  0  0  0  0  0
   -3.6421   -5.0100    0.5953 H   0  0  0  0  0  0  0  0  0  0  0  0
   -2.9160   -0.2524   -1.0199 C   0  0  0  0  0  0  0  0  0  0  0  0
   -3.9880   -0.4514   -0.8349 H   0  0  0  0  0  0  0  0  0  0  0  0
   -2.8040    0.1209   -2.0582 H   0  0  0  0  0  0  0  0  0  0  0  0
   -2.5893    0.5689   -0.3445 H   0  0  0  0  0  0  0  0  0  0  0  0
    1.7015    2.6736   -1.4876 C   0  0  0  0  0  0  0  0  0  0  0  0
    0.9835    3.8822   -1.3545 C   0  0  0  0  0  0  0  0  0  0  0  0
    1.7048    5.0220   -0.9628 C   0  0  0  0  0  0  0  0  0  0  0  0
    1.1624    5.9732   -0.8469 H   0  0  0  0  0  0  0  0  0  0  0  0
    3.0902    4.9794   -0.7181 C   0  0  0  0  0  0  0  0  0  0  0  0
    3.7669    3.7619   -0.9029 C   0  0  0  0  0  0  0  0  0  0  0  0
    4.8553    3.7175   -0.7431 H   0  0  0  0  0  0  0  0  0  0  0  0
    3.0959    2.5889   -1.2959 C   0  0  0  0  0  0  0  0  0  0  0  0
   -0.4978    3.9390   -1.6062 C   0  0  0  0  0  0  0  0  0  0  0  0
   -0.8668    4.9798   -1.5463 H   0  0  0  0  0  0  0  0  0  0  0  0
   -1.0371    3.3289   -0.8493 H   0  0  0  0  0  0  0  0  0  0  0  0
   -0.7606    3.5340   -2.6048 H   0  0  0  0  0  0  0  0  0  0  0  0
    3.8247    6.2168   -0.2659 C   0  0  0  0  0  0  0  0  0  0  0  0
    4.9220    6.0867   -0.3288 H   0  0  0  0  0  0  0  0  0  0  0  0
    3.5761    6.4624    0.7883 H   0  0  0  0  0  0  0  0  0  0  0  0
    3.5454    7.0998   -0.8756 H   0  0  0  0  0  0  0  0  0  0  0  0
    3.8345    1.2948   -1.4947 C   0  0  0  0  0  0  0  0  0  0  0  0
    4.9280    1.4586   -1.4685 H   0  0  0  0  0  0  0  0  0  0  0  0
    3.5762    0.8234   -2.4649 H   0  0  0  0  0  0  0  0  0  0  0  0
    3.5703    0.5596   -0.7022 H   0  0  0  0  0  0  0  0  0  0  0  0
  1  2  1  0  0  0  0
  1  5  1  0  0  0  0
  1  3  1  0  0  0  0
  1  4  1  0  0  0  0
  5  6  1  0  0  0  0
  5 16  1  0  0  0  0
  5  7  1  0  0  0  0
  7  9  1  0  0  0  0
  7  8  1  0  0  0  0
  9 10  1  0  0  0  0
  9 11  1  0  0  0  0
  9 12  1  0  0  0  0
 13 14  1  0  0  0  0
 13 15  1  0  0  0  0
  7 13  1  0  0  0  0
 13 16  1  0  0  0  0
 16 17  1  0  0  0  0
 16 18  1  0  0  0  0
 19 21  1  0  0  0  0
 20 21  1  0  0  0  0
 19 22  1  0  0  0  0
 22 23  1  0  0  0  0
 20 24  1  0  0  0  0
 24 25  1  0  0  0  0
 19 26  1  0  0  0  0
 26 27  2  0  0  0  0
 27 28  1  0  0  0  0
 28 29  1  0  0  0  0
 28 30  2  0  0  0  0
 30 31  1  0  0  0  0
 31 32  1  0  0  0  0
 26 33  1  0  0  0  0
 27 34  1  0  0  0  0
 34 35  1  0  0  0  0
 34 36  1  0  0  0  0
 34 37  1  0  0  0  0
 30 38  1  0  0  0  0
 38 39  1  0  0  0  0
 38 40  1  0  0  0  0
 38 41  1  0  0  0  0
 33 42  1  0  0  0  0
 42 43  1  0  0  0  0
 42 44  1  0  0  0  0
 42 45  1  0  0  0  0
 20 46  1  0  0  0  0
 46 47  1  0  0  0  0
 47 48  2  0  0  0  0
 48 49  1  0  0  0  0
 48 50  1  0  0  0  0
 50 51  2  0  0  0  0
 51 52  1  0  0  0  0
 46 53  2  0  0  0  0
 47 54  1  0  0  0  0
 54 55  1  0  0  0  0
 54 56  1  0  0  0  0
 54 57  1  0  0  0  0
 50 58  1  0  0  0  0
 58 59  1  0  0  0  0
 58 60  1  0  0  0  0
 58 61  1  0  0  0  0
 53 62  1  0  0  0  0
 62 63  1  0  0  0  0
 62 64  1  0  0  0  0
 62 65  1  0  0  0  0
 22 24  2  0  0  0  0
 31 33  2  0  0  0  0
 51 53  1  0  0  0  0
 16 21  1  0  0  0  0
M  END
>  <DFT-ENERGY>
-2134.2238548

$$$$
