SpiroCAACDMeO-4_A1
  CDK     08122418353D

 94 99  0  0  0  0  0  0  0  0999 V2000
    1.0015    0.4576   -0.6079 Ru  0  0  0  0  0  0  0  0  0  0  0  0
    2.7793    0.4576   -1.9971 O   0  0  0  0  0  0  0  0  0  0  0  0
    2.2117   -0.4757    0.3962 C   0  0  0  0  0  0  0  0  0  0  0  0
    1.9789   -0.7686    1.4189 H   0  0  0  0  0  0  0  0  0  0  0  0
    3.0148    1.2328   -3.2229 C   0  0  0  0  0  0  0  0  0  0  0  0
    3.4275    0.5349   -3.9816 H   0  0  0  0  0  0  0  0  0  0  0  0
    1.5933    1.6711   -3.5447 C   0  0  0  0  0  0  0  0  0  0  0  0
    1.5237    2.1685   -4.5159 H   0  0  0  0  0  0  0  0  0  0  0  0
    1.2002    2.3697   -2.7786 H   0  0  0  0  0  0  0  0  0  0  0  0
    0.9039    0.8022   -3.5531 H   0  0  0  0  0  0  0  0  0  0  0  0
    3.9510    2.3815   -2.8919 C   0  0  0  0  0  0  0  0  0  0  0  0
    3.6272    2.8743   -1.9546 H   0  0  0  0  0  0  0  0  0  0  0  0
    3.9499    3.1461   -3.6756 H   0  0  0  0  0  0  0  0  0  0  0  0
    4.9837    2.0538   -2.7343 H   0  0  0  0  0  0  0  0  0  0  0  0
    3.7715   -0.3408   -1.4921 C   0  0  0  0  0  0  0  0  0  0  0  0
    4.9406   -0.6895   -2.1451 C   0  0  0  0  0  0  0  0  0  0  0  0
    5.1600   -0.3376   -3.1504 H   0  0  0  0  0  0  0  0  0  0  0  0
    5.8418   -1.5206   -1.4876 C   0  0  0  0  0  0  0  0  0  0  0  0
    6.7646   -1.8075   -1.9960 H   0  0  0  0  0  0  0  0  0  0  0  0
    5.5918   -1.9922   -0.2023 C   0  0  0  0  0  0  0  0  0  0  0  0
    6.3170   -2.6361    0.2922 H   0  0  0  0  0  0  0  0  0  0  0  0
    4.4221   -1.6319    0.4393 C   0  0  0  0  0  0  0  0  0  0  0  0
    4.2289   -1.9865    1.4506 H   0  0  0  0  0  0  0  0  0  0  0  0
    3.4866   -0.8165   -0.2001 C   0  0  0  0  0  0  0  0  0  0  0  0
    1.5941    2.6239   -0.0542 Cl  0  0  0  0  0  0  0  0  0  0  0  0
    0.1740   -1.2575   -1.9744 Cl  0  0  0  0  0  0  0  0  0  0  0  0
   -1.0351   -0.2908    1.5599 N   0  0  0  0  0  0  0  0  0  0  0  0
   -2.5327   -0.1670    1.8692 C   0  0  0  0  0  0  0  0  0  0  0  0
   -3.0533    0.6178    0.6404 C   0  0  0  0  0  0  0  0  0  0  0  0
   -3.7922    1.3861    0.9184 H   0  0  0  0  0  0  0  0  0  0  0  0
   -3.5836   -0.0477   -0.0649 H   0  0  0  0  0  0  0  0  0  0  0  0
   -1.8055    1.2418   -0.0369 C   0  0  0  0  0  0  0  0  0  0  0  0
   -0.6048    0.3905    0.4567 C   0  0  0  0  0  0  0  0  0  0  0  0
   -1.6131    2.7329    0.4039 C   0  0  0  0  0  0  0  0  0  0  0  0
   -0.6964    2.8546    1.0121 H   0  0  0  0  0  0  0  0  0  0  0  0
   -2.4492    3.0605    1.0423 H   0  0  0  0  0  0  0  0  0  0  0  0
   -1.5421    3.5951   -0.8779 C   0  0  0  0  0  0  0  0  0  0  0  0
   -0.5281    4.0321   -1.0016 H   0  0  0  0  0  0  0  0  0  0  0  0
   -2.2471    4.4428   -0.8418 H   0  0  0  0  0  0  0  0  0  0  0  0
   -1.8535    2.6513   -2.0022 C   0  0  0  0  0  0  0  0  0  0  0  0
   -2.0464    2.9690   -3.3385 C   0  0  0  0  0  0  0  0  0  0  0  0
   -1.9679    3.9882   -3.7084 H   0  0  0  0  0  0  0  0  0  0  0  0
   -2.3575    1.9302   -4.2415 C   0  0  0  0  0  0  0  0  0  0  0  0
   -2.4803    0.5977   -3.7797 C   0  0  0  0  0  0  0  0  0  0  0  0
   -2.2936    0.2924   -2.4213 C   0  0  0  0  0  0  0  0  0  0  0  0
   -2.4095   -0.7334   -2.0706 H   0  0  0  0  0  0  0  0  0  0  0  0
   -1.9646    1.3170   -1.5401 C   0  0  0  0  0  0  0  0  0  0  0  0
   -2.5340    2.3937   -5.5229 O   0  0  0  0  0  0  0  0  0  0  0  0
   -2.8417    1.4315   -6.5639 C   0  0  0  0  0  0  0  0  0  0  0  0
   -3.7715    0.9025   -6.3240 H   0  0  0  0  0  0  0  0  0  0  0  0
   -2.9545    2.0779   -7.4406 H   0  0  0  0  0  0  0  0  0  0  0  0
   -2.0136    0.7258   -6.6773 H   0  0  0  0  0  0  0  0  0  0  0  0
   -2.8562   -0.3595   -4.7158 O   0  0  0  0  0  0  0  0  0  0  0  0
   -2.2598   -1.6728   -4.5429 C   0  0  0  0  0  0  0  0  0  0  0  0
   -1.1821   -1.5926   -4.3572 H   0  0  0  0  0  0  0  0  0  0  0  0
   -2.7588   -2.1953   -3.7226 H   0  0  0  0  0  0  0  0  0  0  0  0
   -2.4694   -2.1495   -5.5055 H   0  0  0  0  0  0  0  0  0  0  0  0
   -3.1925   -1.5428    1.9711 C   0  0  0  0  0  0  0  0  0  0  0  0
   -4.2678   -1.4479    2.1605 H   0  0  0  0  0  0  0  0  0  0  0  0
   -2.7684   -2.1399    2.7895 H   0  0  0  0  0  0  0  0  0  0  0  0
   -3.0716   -2.1256    1.0482 H   0  0  0  0  0  0  0  0  0  0  0  0
   -2.7523    0.6093    3.1717 C   0  0  0  0  0  0  0  0  0  0  0  0
   -3.8162    0.8056    3.3420 H   0  0  0  0  0  0  0  0  0  0  0  0
   -2.2312    1.5773    3.1620 H   0  0  0  0  0  0  0  0  0  0  0  0
   -2.3811    0.0521    4.0421 H   0  0  0  0  0  0  0  0  0  0  0  0
   -0.2213   -1.0927    2.4602 C   0  0  0  0  0  0  0  0  0  0  0  0
   -0.0645   -2.4826    2.2415 C   0  0  0  0  0  0  0  0  0  0  0  0
    0.3767   -0.4689    3.5856 C   0  0  0  0  0  0  0  0  0  0  0  0
    0.6044   -3.2453    3.2124 C   0  0  0  0  0  0  0  0  0  0  0  0
    1.1394   -2.6495    4.3524 C   0  0  0  0  0  0  0  0  0  0  0  0
    0.7146   -4.3196    3.0630 H   0  0  0  0  0  0  0  0  0  0  0  0
    1.0448   -1.2684    4.5234 C   0  0  0  0  0  0  0  0  0  0  0  0
    1.5041   -0.8023    5.3954 H   0  0  0  0  0  0  0  0  0  0  0  0
    1.6459   -3.2578    5.1004 H   0  0  0  0  0  0  0  0  0  0  0  0
   -0.5256   -3.1805    0.9722 C   0  0  0  0  0  0  0  0  0  0  0  0
   -1.1069   -2.4603    0.3348 H   0  0  0  0  0  0  0  0  0  0  0  0
   -1.4213   -4.3868    1.2884 C   0  0  0  0  0  0  0  0  0  0  0  0
   -0.8517   -5.2138    1.7273 H   0  0  0  0  0  0  0  0  0  0  0  0
   -1.8881   -4.7705    0.3740 H   0  0  0  0  0  0  0  0  0  0  0  0
   -2.2189   -4.1328    1.9931 H   0  0  0  0  0  0  0  0  0  0  0  0
    0.6990   -3.6146    0.1555 C   0  0  0  0  0  0  0  0  0  0  0  0
    1.2935   -4.3814    0.6570 H   0  0  0  0  0  0  0  0  0  0  0  0
    1.3589   -2.7555   -0.0537 H   0  0  0  0  0  0  0  0  0  0  0  0
    0.3952   -4.0014   -0.8255 H   0  0  0  0  0  0  0  0  0  0  0  0
    0.3881    1.0397    3.7780 C   0  0  0  0  0  0  0  0  0  0  0  0
   -0.3847    1.5143    3.1150 H   0  0  0  0  0  0  0  0  0  0  0  0
    1.7553    1.5861    3.3507 C   0  0  0  0  0  0  0  0  0  0  0  0
    1.8066    2.6743    3.4703 H   0  0  0  0  0  0  0  0  0  0  0  0
    1.9451    1.3827    2.2810 H   0  0  0  0  0  0  0  0  0  0  0  0
    2.5788    1.1490    3.9224 H   0  0  0  0  0  0  0  0  0  0  0  0
    0.0561    1.4360    5.2230 C   0  0  0  0  0  0  0  0  0  0  0  0
   -0.8666    0.9604    5.5707 H   0  0  0  0  0  0  0  0  0  0  0  0
   -0.0727    2.5211    5.3083 H   0  0  0  0  0  0  0  0  0  0  0  0
    0.8544    1.1547    5.9194 H   0  0  0  0  0  0  0  0  0  0  0  0
  2  1  1  0  0  0  0
  3  1  2  0  0  0  0
  4  3  1  0  0  0  0
  5  2  1  0  0  0  0
  6  5  1  0  0  0  0
  7  5  1  0  0  0  0
  8  7  1  0  0  0  0
  9  7  1  0  0  0  0
 10  7  1  0  0  0  0
 11  5  1  0  0  0  0
 12 11  1  0  0  0  0
 13 11  1  0  0  0  0
 14 11  1  0  0  0  0
 15  2  1  0  0  0  0
 15 24  1  0  0  0  0
 16 15  2  0  0  0  0
 17 16  1  0  0  0  0
 18 16  1  0  0  0  0
 19 18  1  0  0  0  0
 20 18  2  0  0  0  0
 21 20  1  0  0  0  0
 22 20  1  0  0  0  0
 22 24  2  0  0  0  0
 23 22  1  0  0  0  0
 24  3  1  0  0  0  0
  1 25  1  0  0  0  0
  1 26  1  0  0  0  0
 27 28  1  0  0  0  0
 27 33  1  0  0  0  0
 28 29  1  0  0  0  0
 29 30  1  0  0  0  0
 29 31  1  0  0  0  0
 29 32  1  0  0  0  0
 32 33  1  0  0  0  0
 32 34  1  0  0  0  0
 32 47  1  0  0  0  0
 34 35  1  0  0  0  0
 34 36  1  0  0  0  0
 34 37  1  0  0  0  0
 37 38  1  0  0  0  0
 37 39  1  0  0  0  0
 37 40  1  0  0  0  0
 40 41  1  0  0  0  0
 40 47  2  0  0  0  0
 41 42  1  0  0  0  0
 41 43  2  0  0  0  0
 43 44  1  0  0  0  0
 43 48  1  0  0  0  0
 44 45  2  0  0  0  0
 44 53  1  0  0  0  0
 45 46  1  0  0  0  0
 45 47  1  0  0  0  0
 48 49  1  0  0  0  0
 49 50  1  0  0  0  0
 49 51  1  0  0  0  0
 49 52  1  0  0  0  0
 53 54  1  0  0  0  0
 54 55  1  0  0  0  0
 54 56  1  0  0  0  0
 54 57  1  0  0  0  0
 58 59  1  0  0  0  0
 58 60  1  0  0  0  0
 58 61  1  0  0  0  0
 28 58  1  0  0  0  0
 62 63  1  0  0  0  0
 62 64  1  0  0  0  0
 62 65  1  0  0  0  0
 28 62  1  0  0  0  0
 66 67  1  0  0  0  0
 66 68  2  0  0  0  0
 67 69  2  0  0  0  0
 69 70  1  0  0  0  0
 69 71  1  0  0  0  0
 70 72  2  0  0  0  0
 72 73  1  0  0  0  0
 68 72  1  0  0  0  0
 27 66  1  0  0  0  0
 70 74  1  0  0  0  0
 75 76  1  0  0  0  0
 75 77  1  0  0  0  0
 77 78  1  0  0  0  0
 77 79  1  0  0  0  0
 77 80  1  0  0  0  0
 75 81  1  0  0  0  0
 81 82  1  0  0  0  0
 81 83  1  0  0  0  0
 81 84  1  0  0  0  0
 67 75  1  0  0  0  0
 85 86  1  0  0  0  0
 85 87  1  0  0  0  0
 87 88  1  0  0  0  0
 87 89  1  0  0  0  0
 87 90  1  0  0  0  0
 85 91  1  0  0  0  0
 91 92  1  0  0  0  0
 91 93  1  0  0  0  0
 91 94  1  0  0  0  0
 68 85  1  0  0  0  0
  1 33  1  0  0  0  0
M  END
> <FrozenCore-PM6_ENERGY>
-314.650

> <RMSD_CONF_CG-CS>
0.660377

> <RMSD_CONF_GO-CS>
0.000000

> <UID>


> <DESCRIPTOR_DEFINITION_1>
desc1=( echo "1 * ( e( $hartree_to_kcalmol * ( ( $freeEnergyZ - $freeEnergyD ) - ( $freeEnergyX + 2*$G_Ethene - $freeEnergyD - 2*$G_Propene ) - $DDG_reference_HGII ) / $kT ) ) " | bc -l )

> <DESCRIPTOR_DEFINITION_2>
desc1=( echo "1 * ( e( $hartree_to_kcalmol * ( ( $freeEnergyZ - $freeEnergyD ) - ( $freeEnergyX + 2*$G_Ethene - $freeEnergyD - 2*$G_Propene ) - $DDG_reference_HGII ) / $kT ) ) " | bc -l )

> <DESCRIPTOR_DEFINITION_3>
desc1=( echo "1 * ( e( $hartree_to_kcalmol * ( ( $freeEnergyZ - $freeEnergyD ) - ( $freeEnergyX + 2*$G_Ethene - $freeEnergyD - 2*$G_Propene ) - $DDG_reference_HGII ) / $kT ) ) " | bc -l )

> <WEIGHT_DEFINITION_1>
w1=$( echo "1 / ( 1 + e( $hartree_to_kcalmol * ( ( ( $freeEnergyX + 2*$G_Ethene - $freeEnergyD - 2*$G_Propene ) ) - ( $DG_referenceProductionBarrier + $magnitude4 ) ) / $kT ) )" | bc -l )

> <WEIGHT_DEFINITION_2>
w1=$( echo "1 / ( 1 + e( $hartree_to_kcalmol * ( ( ( $freeEnergyX + 2*$G_Ethene - $freeEnergyD - 2*$G_Propene ) ) - ( $DG_referenceProductionBarrier + $magnitude4 ) ) / $kT ) )" | bc -l )

> <WEIGHT_DEFINITION_3>
w1=$( echo "1 / ( 1 + e( $hartree_to_kcalmol * ( ( ( $freeEnergyX + 2*$G_Ethene - $freeEnergyD - 2*$G_Propene ) ) - ( $DG_referenceProductionBarrier + $magnitude4 ) ) / $kT ) )" | bc -l )

> <WEIGHT_DEFINITION_4>
w1=$( echo "1 / ( 1 + e( $hartree_to_kcalmol * ( ( ( $freeEnergyX + 2*$G_Ethene - $freeEnergyD - 2*$G_Propene ) ) - ( $DG_referenceProductionBarrier + $magnitude4 ) ) / $kT ) )" | bc -l )

> <CALCULATION_OF_OVERALL_FITNESS>
fitness=$( echo "( $desc1 + $desc2 + $desc3 ) * ( $w1 * $w2 * $w3 * $w4 )" | bc -l )

> <freeEnergyA>
-2770.75022996

> <freeEnergyF>
-2770.72171018

> <freeEnergyE>
-2770.75022996

> <freeEnergyC>
-2425.48677042

> <freeEnergyL>
-1292.86838816

> <freeEnergyX>
-2504.01756079

> <freeEnergyZ>
-2425.45749024

> <freeEnergyD>
-2425.51451342

> <G_Propene>
-117.738020895

> <G_Ethene>
-78.4716324751

> <G_HoveydaProd>
-502.204109499

> <G_SIMes>
-924.27249048

> <G_HG_RuCl2_SIMes>
-2402.13728523

> <DG_referenceProductionBarrier>
0.01468968

> <DG_referencePrecursorStabilityHII>
-0.0052201621

> <DG_referencePrecursorStabilityHI>
0.0117775312

> <DDG_referencePrecursorStability>
.0169976933

> <DG_referenceSynt>
0.0226072217

> <hartree_to_kcalmol>
627.49467516

> <boltzmann_constant>
0.0000000000000000000000138066

> <avogadro_number>
602214000000000000000000

> <jmol_to_kcalmol>
0.00023901

> <temp>
313.15

> <kT>
.6223089948281258706000000000

> <magnitude1>
1.43290809

> <magnitude2>
2.86581618

> <magnitude3>
4.29872427

> <magnitude4>
5.73163236

> <DFT_IDENTIFIER>
1723723380874

> <DFT_MACHINE>
158.39.114.73

> <XTB_IDENTIFIER>
NREC

> <XTB_MACHINE>
NREC

> <DESCRIPTOR_1>
164.77863420389374935671

> <DESCRIPTOR_2>
17.126657815860178632

> <DESCRIPTOR_3>
0.0000000001

> <WEIGHT_1>
.84423401460194289797

> <WEIGHT_2>
.99999028138809095270

> <WEIGHT_3>
.99999999999999999957

> <WEIGHT_4>
.99999999996758178294

> <FITNESS>
153.56914246087981506951

$$$$
