
  CDK     08152413133D

 80 84  0  0  0  0  0  0  0  0999 V2000
    1.4351   -0.7935    0.3388 Ru  0  0  0  0  0  0  0  0  0  0  0  0
    3.1660   -0.8267   -0.5934 C   0  0  0  0  0  0  0  0  0  0  0  0
    3.1889   -1.4029   -1.5348 H   0  0  0  0  0  0  0  0  0  0  0  0
    3.4859   -1.7195    0.6825 C   0  0  0  0  0  0  0  0  0  0  0  0
    3.7817   -2.7119    0.2963 H   0  0  0  0  0  0  0  0  0  0  0  0
    2.2947   -1.9611    1.6789 C   0  0  0  0  0  0  0  0  0  0  0  0
    2.4269   -1.4823    2.6646 H   0  0  0  0  0  0  0  0  0  0  0  0
    1.9282   -3.0014    1.6910 H   0  0  0  0  0  0  0  0  0  0  0  0
    4.2772   -1.1901    1.2432 H   0  0  0  0  0  0  0  0  0  0  0  0
    3.7192    0.1287   -0.5959 H   0  0  0  0  0  0  0  0  0  0  0  0
    0.8427   -2.7870   -0.8344 Cl  0  0  0  0  0  0  0  0  0  0  0  0
    2.2611    1.0897    1.5817 Cl  0  0  0  0  0  0  0  0  0  0  0  0
   -0.8379    0.9665   -0.6085 N   0  0  0  0  0  0  0  0  0  0  0  0
   -2.2611    1.3588   -0.1901 C   0  0  0  0  0  0  0  0  0  0  0  0
   -2.3143    0.7436    1.2179 C   0  0  0  0  0  0  0  0  0  0  0  0
   -3.3405    0.4562    1.5138 H   0  0  0  0  0  0  0  0  0  0  0  0
   -1.9392    1.4845    1.9516 H   0  0  0  0  0  0  0  0  0  0  0  0
   -1.3599   -0.4667    1.1879 C   0  0  0  0  0  0  0  0  0  0  0  0
   -0.3185    0.0101    0.1662 C   0  0  0  0  0  0  0  0  0  0  0  0
   -2.0417   -1.8023    0.7000 C   0  0  0  0  0  0  0  0  0  0  0  0
   -1.8084   -2.0205   -0.3589 H   0  0  0  0  0  0  0  0  0  0  0  0
   -3.1382   -1.6731    0.7930 H   0  0  0  0  0  0  0  0  0  0  0  0
   -1.5454   -2.9452    1.6168 C   0  0  0  0  0  0  0  0  0  0  0  0
   -0.8081   -3.5735    1.0742 H   0  0  0  0  0  0  0  0  0  0  0  0
   -2.3752   -3.6053    1.9421 H   0  0  0  0  0  0  0  0  0  0  0  0
   -0.8860   -2.2376    2.7700 C   0  0  0  0  0  0  0  0  0  0  0  0
   -0.3543   -2.7821    3.9486 C   0  0  0  0  0  0  0  0  0  0  0  0
   -0.4119   -3.8567    4.1737 H   0  0  0  0  0  0  0  0  0  0  0  0
    0.2826   -1.9540    4.8821 C   0  0  0  0  0  0  0  0  0  0  0  0
    0.3806   -0.5499    4.6429 C   0  0  0  0  0  0  0  0  0  0  0  0
   -0.1562   -0.0085    3.4650 C   0  0  0  0  0  0  0  0  0  0  0  0
   -0.0479    1.0591    3.2448 H   0  0  0  0  0  0  0  0  0  0  0  0
   -0.7691   -0.8604    2.5343 C   0  0  0  0  0  0  0  0  0  0  0  0
    0.7547   -2.5222    6.0444 O   0  0  0  0  0  0  0  0  0  0  0  0
    2.1786   -2.4587    6.2111 C   0  0  0  0  0  0  0  0  0  0  0  0
    2.5389   -1.4121    6.2785 H   0  0  0  0  0  0  0  0  0  0  0  0
    2.3989   -2.9904    7.1558 H   0  0  0  0  0  0  0  0  0  0  0  0
    2.6969   -2.9754    5.3718 H   0  0  0  0  0  0  0  0  0  0  0  0
    1.0118    0.1827    5.6133 O   0  0  0  0  0  0  0  0  0  0  0  0
    1.2194    1.5681    5.3314 C   0  0  0  0  0  0  0  0  0  0  0  0
    1.7802    1.7072    4.3819 H   0  0  0  0  0  0  0  0  0  0  0  0
    0.2531    2.1170    5.2701 H   0  0  0  0  0  0  0  0  0  0  0  0
    1.8055    1.9615    6.1814 H   0  0  0  0  0  0  0  0  0  0  0  0
   -2.4388    2.8732   -0.1491 C   0  0  0  0  0  0  0  0  0  0  0  0
   -3.4711    3.0960    0.1872 H   0  0  0  0  0  0  0  0  0  0  0  0
   -2.2990    3.3318   -1.1468 H   0  0  0  0  0  0  0  0  0  0  0  0
   -1.7382    3.3421    0.5642 H   0  0  0  0  0  0  0  0  0  0  0  0
   -3.2818    0.7526   -1.1584 C   0  0  0  0  0  0  0  0  0  0  0  0
   -4.3048    0.9977   -0.8107 H   0  0  0  0  0  0  0  0  0  0  0  0
   -3.1918   -0.3456   -1.2294 H   0  0  0  0  0  0  0  0  0  0  0  0
   -3.1560    1.1831   -2.1701 H   0  0  0  0  0  0  0  0  0  0  0  0
   -0.2887    1.5256   -1.8353 C   0  0  0  0  0  0  0  0  0  0  0  0
    0.3174    2.8148   -1.8156 C   0  0  0  0  0  0  0  0  0  0  0  0
   -0.4951    0.8332   -3.0641 C   0  0  0  0  0  0  0  0  0  0  0  0
    0.5759    3.4424   -3.0492 C   0  0  0  0  0  0  0  0  0  0  0  0
    0.2785    2.8231   -4.2646 C   0  0  0  0  0  0  0  0  0  0  0  0
    1.0339    4.4416   -3.0478 H   0  0  0  0  0  0  0  0  0  0  0  0
   -0.2179    1.5186   -4.2628 C   0  0  0  0  0  0  0  0  0  0  0  0
   -0.3875    1.0015   -5.2178 H   0  0  0  0  0  0  0  0  0  0  0  0
    0.4691    3.3434   -5.2145 H   0  0  0  0  0  0  0  0  0  0  0  0
    0.8252    3.5097   -0.5571 C   0  0  0  0  0  0  0  0  0  0  0  0
    0.5365    2.9023    0.3234 H   0  0  0  0  0  0  0  0  0  0  0  0
    0.3030    4.9475   -0.3890 C   0  0  0  0  0  0  0  0  0  0  0  0
    0.6752    5.6075   -1.1994 H   0  0  0  0  0  0  0  0  0  0  0  0
    0.6702    5.3714    0.5676 H   0  0  0  0  0  0  0  0  0  0  0  0
   -0.8012    5.0118   -0.3913 H   0  0  0  0  0  0  0  0  0  0  0  0
    2.3669    3.5383   -0.6050 C   0  0  0  0  0  0  0  0  0  0  0  0
    2.7208    4.1902   -1.4309 H   0  0  0  0  0  0  0  0  0  0  0  0
    2.7816    2.5243   -0.7468 H   0  0  0  0  0  0  0  0  0  0  0  0
    2.7726    3.9303    0.3484 H   0  0  0  0  0  0  0  0  0  0  0  0
   -0.8787   -0.6383   -3.1756 C   0  0  0  0  0  0  0  0  0  0  0  0
   -1.0394   -1.0441   -2.1584 H   0  0  0  0  0  0  0  0  0  0  0  0
    0.3092   -1.4091   -3.7860 C   0  0  0  0  0  0  0  0  0  0  0  0
    0.1090   -2.4978   -3.7673 H   0  0  0  0  0  0  0  0  0  0  0  0
    1.2360   -1.2360   -3.2093 H   0  0  0  0  0  0  0  0  0  0  0  0
    0.4806   -1.0993   -4.8378 H   0  0  0  0  0  0  0  0  0  0  0  0
   -2.1379   -0.8887   -4.0225 C   0  0  0  0  0  0  0  0  0  0  0  0
   -3.0279   -0.3562   -3.6386 H   0  0  0  0  0  0  0  0  0  0  0  0
   -2.3691   -1.9729   -4.0404 H   0  0  0  0  0  0  0  0  0  0  0  0
   -1.9851   -0.5700   -5.0743 H   0  0  0  0  0  0  0  0  0  0  0  0
  2  4  1  0  0  0  0
  2  1  1  0  0  0  0
  2  3  1  0  0  0  0
  4  6  1  0  0  0  0
  4  5  1  0  0  0  0
  6  1  1  0  0  0  0
  6  8  1  0  0  0  0
  7  6  1  0  0  0  0
  9  4  1  0  0  0  0
 10  2  1  0  0  0  0
  1 11  1  0  0  0  0
  1 12  1  0  0  0  0
 13 14  1  0  0  0  0
 13 19  1  0  0  0  0
 14 15  1  0  0  0  0
 15 16  1  0  0  0  0
 15 17  1  0  0  0  0
 15 18  1  0  0  0  0
 18 19  1  0  0  0  0
 18 20  1  0  0  0  0
 18 33  1  0  0  0  0
 20 21  1  0  0  0  0
 20 22  1  0  0  0  0
 20 23  1  0  0  0  0
 23 24  1  0  0  0  0
 23 25  1  0  0  0  0
 23 26  1  0  0  0  0
 26 27  1  0  0  0  0
 26 33  2  0  0  0  0
 27 28  1  0  0  0  0
 27 29  2  0  0  0  0
 29 30  1  0  0  0  0
 29 34  1  0  0  0  0
 30 31  2  0  0  0  0
 30 39  1  0  0  0  0
 31 32  1  0  0  0  0
 31 33  1  0  0  0  0
 34 35  1  0  0  0  0
 35 36  1  0  0  0  0
 35 37  1  0  0  0  0
 35 38  1  0  0  0  0
 39 40  1  0  0  0  0
 40 41  1  0  0  0  0
 40 42  1  0  0  0  0
 40 43  1  0  0  0  0
 44 45  1  0  0  0  0
 44 46  1  0  0  0  0
 44 47  1  0  0  0  0
 14 44  1  0  0  0  0
 48 49  1  0  0  0  0
 48 50  1  0  0  0  0
 48 51  1  0  0  0  0
 14 48  1  0  0  0  0
 52 53  1  0  0  0  0
 52 54  2  0  0  0  0
 53 55  2  0  0  0  0
 55 56  1  0  0  0  0
 55 57  1  0  0  0  0
 56 58  2  0  0  0  0
 58 59  1  0  0  0  0
 54 58  1  0  0  0  0
 13 52  1  0  0  0  0
 56 60  1  0  0  0  0
 61 62  1  0  0  0  0
 61 63  1  0  0  0  0
 63 64  1  0  0  0  0
 63 65  1  0  0  0  0
 63 66  1  0  0  0  0
 61 67  1  0  0  0  0
 67 68  1  0  0  0  0
 67 69  1  0  0  0  0
 67 70  1  0  0  0  0
 53 61  1  0  0  0  0
 71 72  1  0  0  0  0
 71 73  1  0  0  0  0
 73 74  1  0  0  0  0
 73 75  1  0  0  0  0
 73 76  1  0  0  0  0
 71 77  1  0  0  0  0
 77 78  1  0  0  0  0
 77 79  1  0  0  0  0
 77 80  1  0  0  0  0
 54 71  1  0  0  0  0
  1 19  1  0  0  0  0
M  END
>  <DFT-ENERGY>
-2425.51451351

$$$$
