
  CDK     08132420373D

 86 90  0  0  0  0  0  0  0  0999 V2000
   -0.1704    3.4980   -1.5771 C   0  0  0  0  0  0  0  0  0  0  0  0
    0.8992    3.5366   -1.8462 H   0  0  0  0  0  0  0  0  0  0  0  0
   -0.7116    4.3381   -2.0671 H   0  0  0  0  0  0  0  0  0  0  0  0
   -0.5970    2.5617   -1.9942 H   0  0  0  0  0  0  0  0  0  0  0  0
   -0.3897    3.5930   -0.0842 C   0  0  0  0  0  0  0  0  0  0  0  0
   -1.4476    3.6589    0.2321 H   0  0  0  0  0  0  0  0  0  0  0  0
    0.5345    4.1779    0.8327 C   0  0  0  0  0  0  0  0  0  0  0  0
    1.5524    4.3698    0.4519 H   0  0  0  0  0  0  0  0  0  0  0  0
    0.0302    5.0277    1.9745 C   0  0  0  0  0  0  0  0  0  0  0  0
    0.8065    5.2176    2.7395 H   0  0  0  0  0  0  0  0  0  0  0  0
   -0.2892    6.0119    1.5685 H   0  0  0  0  0  0  0  0  0  0  0  0
   -0.8494    4.5541    2.4536 H   0  0  0  0  0  0  0  0  0  0  0  0
    1.2828    2.4770    2.2230 C   0  0  0  0  0  0  0  0  0  0  0  0
    0.7845    2.7568    3.1721 H   0  0  0  0  0  0  0  0  0  0  0  0
    2.3847    2.5915    2.1543 H   0  0  0  0  0  0  0  0  0  0  0  0
    0.3459    1.7619    0.8092 Ru  0  0  0  0  0  0  0  0  0  0  0  0
   -1.6611    1.9199    2.1556 Cl  0  0  0  0  0  0  0  0  0  0  0  0
    2.4001    1.8855   -0.4280 Cl  0  0  0  0  0  0  0  0  0  0  0  0
    0.4703   -1.1540    1.5794 N   0  0  0  0  0  0  0  0  0  0  0  0
   -0.2945   -2.4619    1.3624 C   0  0  0  0  0  0  0  0  0  0  0  0
   -0.6523   -2.2941   -0.1231 C   0  0  0  0  0  0  0  0  0  0  0  0
   -1.5356   -2.8915   -0.4179 H   0  0  0  0  0  0  0  0  0  0  0  0
    0.2061   -2.6179   -0.7456 H   0  0  0  0  0  0  0  0  0  0  0  0
   -0.8830   -0.7720   -0.3167 C   0  0  0  0  0  0  0  0  0  0  0  0
    0.0535   -0.1762    0.7592 C   0  0  0  0  0  0  0  0  0  0  0  0
   -2.3899   -0.3497   -0.2017 C   0  0  0  0  0  0  0  0  0  0  0  0
   -2.4489    0.6395    0.2881 H   0  0  0  0  0  0  0  0  0  0  0  0
   -2.9672   -1.0522    0.4252 H   0  0  0  0  0  0  0  0  0  0  0  0
   -2.9292   -0.2640   -1.6450 C   0  0  0  0  0  0  0  0  0  0  0  0
   -3.7102    0.5158   -1.7503 H   0  0  0  0  0  0  0  0  0  0  0  0
   -3.3924   -1.2232   -1.9689 H   0  0  0  0  0  0  0  0  0  0  0  0
   -1.6921    0.0113   -2.4589 C   0  0  0  0  0  0  0  0  0  0  0  0
   -1.5751    0.4670   -3.7798 C   0  0  0  0  0  0  0  0  0  0  0  0
   -2.4516    0.7323   -4.3883 H   0  0  0  0  0  0  0  0  0  0  0  0
   -0.3090    0.5967   -4.3671 C   0  0  0  0  0  0  0  0  0  0  0  0
    0.8595    0.2359   -3.6322 C   0  0  0  0  0  0  0  0  0  0  0  0
    0.7386   -0.2116   -2.3051 C   0  0  0  0  0  0  0  0  0  0  0  0
    1.6308   -0.4425   -1.7128 H   0  0  0  0  0  0  0  0  0  0  0  0
   -0.5358   -0.2959   -1.7245 C   0  0  0  0  0  0  0  0  0  0  0  0
   -0.2377    1.0180   -5.6761 O   0  0  0  0  0  0  0  0  0  0  0  0
    0.4464    2.2645   -5.8725 C   0  0  0  0  0  0  0  0  0  0  0  0
    1.5110    2.2019   -5.5691 H   0  0  0  0  0  0  0  0  0  0  0  0
    0.3788    2.4811   -6.9552 H   0  0  0  0  0  0  0  0  0  0  0  0
   -0.0521    3.0817   -5.3040 H   0  0  0  0  0  0  0  0  0  0  0  0
    2.0451    0.3601   -4.3038 O   0  0  0  0  0  0  0  0  0  0  0  0
    3.2317    0.0192   -3.5834 C   0  0  0  0  0  0  0  0  0  0  0  0
    3.3425    0.6410   -2.6705 H   0  0  0  0  0  0  0  0  0  0  0  0
    3.2320   -1.0560   -3.2964 H   0  0  0  0  0  0  0  0  0  0  0  0
    4.0680    0.2103   -4.2796 H   0  0  0  0  0  0  0  0  0  0  0  0
    0.5488   -3.6994    1.6466 C   0  0  0  0  0  0  0  0  0  0  0  0
   -0.1033   -4.5935    1.5995 H   0  0  0  0  0  0  0  0  0  0  0  0
    0.9919   -3.6587    2.6616 H   0  0  0  0  0  0  0  0  0  0  0  0
    1.3587   -3.8330    0.9097 H   0  0  0  0  0  0  0  0  0  0  0  0
   -1.5525   -2.4950    2.2502 C   0  0  0  0  0  0  0  0  0  0  0  0
   -2.2282   -3.2951    1.8870 H   0  0  0  0  0  0  0  0  0  0  0  0
   -2.1007   -1.5360    2.2298 H   0  0  0  0  0  0  0  0  0  0  0  0
   -1.2978   -2.7251    3.2991 H   0  0  0  0  0  0  0  0  0  0  0  0
    1.5413   -0.9424    2.5437 C   0  0  0  0  0  0  0  0  0  0  0  0
    2.8809   -1.1721    2.1191 C   0  0  0  0  0  0  0  0  0  0  0  0
    1.2610   -0.4395    3.8450 C   0  0  0  0  0  0  0  0  0  0  0  0
    3.9252   -0.8067    2.9891 C   0  0  0  0  0  0  0  0  0  0  0  0
    3.6699   -0.2503    4.2434 C   0  0  0  0  0  0  0  0  0  0  0  0
    4.9640   -0.9627    2.6656 H   0  0  0  0  0  0  0  0  0  0  0  0
    2.3487   -0.0922    4.6682 C   0  0  0  0  0  0  0  0  0  0  0  0
    2.1461    0.3093    5.6707 H   0  0  0  0  0  0  0  0  0  0  0  0
    4.5022    0.0424    4.8999 H   0  0  0  0  0  0  0  0  0  0  0  0
    3.2671   -1.8576    0.8112 C   0  0  0  0  0  0  0  0  0  0  0  0
    2.3422   -2.0111    0.2202 H   0  0  0  0  0  0  0  0  0  0  0  0
    3.9074   -3.2311    1.1054 C   0  0  0  0  0  0  0  0  0  0  0  0
    4.8997   -3.0981    1.5830 H   0  0  0  0  0  0  0  0  0  0  0  0
    4.0663   -3.7940    0.1626 H   0  0  0  0  0  0  0  0  0  0  0  0
    3.2971   -3.8542    1.7856 H   0  0  0  0  0  0  0  0  0  0  0  0
    4.2354   -1.0271   -0.0453 C   0  0  0  0  0  0  0  0  0  0  0  0
    5.2107   -0.8937    0.4668 H   0  0  0  0  0  0  0  0  0  0  0  0
    3.8181   -0.0268   -0.2639 H   0  0  0  0  0  0  0  0  0  0  0  0
    4.4390   -1.5553   -0.9998 H   0  0  0  0  0  0  0  0  0  0  0  0
   -0.1393   -0.3618    4.4376 C   0  0  0  0  0  0  0  0  0  0  0  0
   -0.8665   -0.4000    3.6063 H   0  0  0  0  0  0  0  0  0  0  0  0
   -0.4256    0.9281    5.2196 C   0  0  0  0  0  0  0  0  0  0  0  0
   -1.4715    0.9119    5.5862 H   0  0  0  0  0  0  0  0  0  0  0  0
   -0.3246    1.8207    4.5772 H   0  0  0  0  0  0  0  0  0  0  0  0
    0.2321    1.0357    6.1065 H   0  0  0  0  0  0  0  0  0  0  0  0
   -0.3451   -1.5748    5.3701 C   0  0  0  0  0  0  0  0  0  0  0  0
   -0.0725   -2.5329    4.8844 H   0  0  0  0  0  0  0  0  0  0  0  0
   -1.4003   -1.6400    5.7060 H   0  0  0  0  0  0  0  0  0  0  0  0
    0.2939   -1.4794    6.2727 H   0  0  0  0  0  0  0  0  0  0  0  0
  1  2  1  0  0  0  0
  1  5  1  0  0  0  0
  1  3  1  0  0  0  0
  1  4  1  0  0  0  0
  5  6  1  0  0  0  0
  5 16  1  0  0  0  0
  5  7  1  0  0  0  0
  7  9  1  0  0  0  0
  7  8  1  0  0  0  0
  9 10  1  0  0  0  0
  9 11  1  0  0  0  0
  9 12  1  0  0  0  0
 13 14  1  0  0  0  0
 13 15  1  0  0  0  0
  7 13  1  0  0  0  0
 13 16  1  0  0  0  0
 16 17  1  0  0  0  0
 16 18  1  0  0  0  0
 19 20  1  0  0  0  0
 19 25  1  0  0  0  0
 20 21  1  0  0  0  0
 21 22  1  0  0  0  0
 21 23  1  0  0  0  0
 21 24  1  0  0  0  0
 24 25  1  0  0  0  0
 24 26  1  0  0  0  0
 24 39  1  0  0  0  0
 26 27  1  0  0  0  0
 26 28  1  0  0  0  0
 26 29  1  0  0  0  0
 29 30  1  0  0  0  0
 29 31  1  0  0  0  0
 29 32  1  0  0  0  0
 32 33  1  0  0  0  0
 32 39  2  0  0  0  0
 33 34  1  0  0  0  0
 33 35  2  0  0  0  0
 35 36  1  0  0  0  0
 35 40  1  0  0  0  0
 36 37  2  0  0  0  0
 36 45  1  0  0  0  0
 37 38  1  0  0  0  0
 37 39  1  0  0  0  0
 40 41  1  0  0  0  0
 41 42  1  0  0  0  0
 41 43  1  0  0  0  0
 41 44  1  0  0  0  0
 45 46  1  0  0  0  0
 46 47  1  0  0  0  0
 46 48  1  0  0  0  0
 46 49  1  0  0  0  0
 50 51  1  0  0  0  0
 50 52  1  0  0  0  0
 50 53  1  0  0  0  0
 20 50  1  0  0  0  0
 54 55  1  0  0  0  0
 54 56  1  0  0  0  0
 54 57  1  0  0  0  0
 20 54  1  0  0  0  0
 58 59  1  0  0  0  0
 58 60  2  0  0  0  0
 59 61  2  0  0  0  0
 61 62  1  0  0  0  0
 61 63  1  0  0  0  0
 62 64  2  0  0  0  0
 64 65  1  0  0  0  0
 60 64  1  0  0  0  0
 19 58  1  0  0  0  0
 62 66  1  0  0  0  0
 67 68  1  0  0  0  0
 67 69  1  0  0  0  0
 69 70  1  0  0  0  0
 69 71  1  0  0  0  0
 69 72  1  0  0  0  0
 67 73  1  0  0  0  0
 73 74  1  0  0  0  0
 73 75  1  0  0  0  0
 73 76  1  0  0  0  0
 59 67  1  0  0  0  0
 77 78  1  0  0  0  0
 77 79  1  0  0  0  0
 79 80  1  0  0  0  0
 79 81  1  0  0  0  0
 79 82  1  0  0  0  0
 77 83  1  0  0  0  0
 83 84  1  0  0  0  0
 83 85  1  0  0  0  0
 83 86  1  0  0  0  0
 60 77  1  0  0  0  0
 16 25  1  0  0  0  0
M  END
>  <DFT-ENERGY>
-2504.01756107

$$$$
