UFECOYMODN3_A1
  CDK     02022414043D

 73 77  0  0  0  0  0  0  0  0999 V2000
    0.6899   -0.2848   -0.0663 Ru  0  0  0  0  0  0  0  0  0  0  0  0
    2.4677   -0.2848   -1.4555 O   0  0  0  0  0  0  0  0  0  0  0  0
    1.9001   -1.2181    0.9378 C   0  0  0  0  0  0  0  0  0  0  0  0
    1.6673   -1.5110    1.9605 H   0  0  0  0  0  0  0  0  0  0  0  0
    2.7032    0.4904   -2.6813 C   0  0  0  0  0  0  0  0  0  0  0  0
    3.1149   -0.2088   -3.4395 H   0  0  0  0  0  0  0  0  0  0  0  0
    1.2808    0.9287   -2.9996 C   0  0  0  0  0  0  0  0  0  0  0  0
    1.2092    1.4243   -3.9705 H   0  0  0  0  0  0  0  0  0  0  0  0
    0.8923    1.6256   -2.2289 H   0  0  0  0  0  0  0  0  0  0  0  0
    0.5947    0.0560   -3.0031 H   0  0  0  0  0  0  0  0  0  0  0  0
    3.6398    1.6377   -2.3472 C   0  0  0  0  0  0  0  0  0  0  0  0
    3.6339    2.4086   -3.1241 H   0  0  0  0  0  0  0  0  0  0  0  0
    4.6736    1.3102   -2.1960 H   0  0  0  0  0  0  0  0  0  0  0  0
    3.3188    2.1219   -1.4035 H   0  0  0  0  0  0  0  0  0  0  0  0
    3.4599   -1.0832   -0.9505 C   0  0  0  0  0  0  0  0  0  0  0  0
    4.6290   -1.4319   -1.6035 C   0  0  0  0  0  0  0  0  0  0  0  0
    4.8477   -1.0817   -2.6095 H   0  0  0  0  0  0  0  0  0  0  0  0
    5.5302   -2.2630   -0.9460 C   0  0  0  0  0  0  0  0  0  0  0  0
    6.4526   -2.5507   -1.4548 H   0  0  0  0  0  0  0  0  0  0  0  0
    5.2802   -2.7346    0.3393 C   0  0  0  0  0  0  0  0  0  0  0  0
    6.0048   -3.3794    0.8334 H   0  0  0  0  0  0  0  0  0  0  0  0
    4.1105   -2.3743    0.9809 C   0  0  0  0  0  0  0  0  0  0  0  0
    3.9173   -2.7289    1.9922 H   0  0  0  0  0  0  0  0  0  0  0  0
    3.1750   -1.5589    0.3415 C   0  0  0  0  0  0  0  0  0  0  0  0
    1.2850    1.8907    0.4898 Cl  0  0  0  0  0  0  0  0  0  0  0  0
   -0.1388   -2.0022   -1.4347 Cl  0  0  0  0  0  0  0  0  0  0  0  0
   -1.2393   -0.7209    2.3325 N   0  0  0  0  0  0  0  0  0  0  0  0
   -2.1149    0.3929    0.6296 N   0  0  0  0  0  0  0  0  0  0  0  0
   -0.9195   -0.2371    1.0545 C   0  0  0  0  0  0  0  0  0  0  0  0
   -2.5860   -0.3986    2.6827 C   0  0  0  0  0  0  0  0  0  0  0  0
   -3.0140   -0.6865    3.6249 H   0  0  0  0  0  0  0  0  0  0  0  0
   -3.1265    0.2905    1.6274 C   0  0  0  0  0  0  0  0  0  0  0  0
   -4.1079    0.7075    1.4921 H   0  0  0  0  0  0  0  0  0  0  0  0
   -0.4053   -1.4541    3.2525 C   0  0  0  0  0  0  0  0  0  0  0  0
   -0.3587   -2.8658    3.1755 C   0  0  0  0  0  0  0  0  0  0  0  0
    0.3537   -3.5683    4.1553 C   0  0  0  0  0  0  0  0  0  0  0  0
    0.3843   -4.6554    4.1171 H   0  0  0  0  0  0  0  0  0  0  0  0
    1.0305   -2.8862    5.1760 C   0  0  0  0  0  0  0  0  0  0  0  0
    1.0302   -1.4825    5.2010 C   0  0  0  0  0  0  0  0  0  0  0  0
    1.5867   -0.9571    5.9744 H   0  0  0  0  0  0  0  0  0  0  0  0
    0.3287   -0.7503    4.2375 C   0  0  0  0  0  0  0  0  0  0  0  0
   -1.0218   -3.5780    2.0473 C   0  0  0  0  0  0  0  0  0  0  0  0
   -2.1120   -3.4377    2.0553 H   0  0  0  0  0  0  0  0  0  0  0  0
   -0.8285   -4.6577    2.0431 H   0  0  0  0  0  0  0  0  0  0  0  0
   -0.6612   -3.1865    1.0696 H   0  0  0  0  0  0  0  0  0  0  0  0
    1.7730   -3.6418    6.2289 C   0  0  0  0  0  0  0  0  0  0  0  0
    1.6169   -4.7269    6.1671 H   0  0  0  0  0  0  0  0  0  0  0  0
    1.4680   -3.3300    7.2385 H   0  0  0  0  0  0  0  0  0  0  0  0
    2.8566   -3.4671    6.1511 H   0  0  0  0  0  0  0  0  0  0  0  0
    0.3785    0.7390    4.2150 C   0  0  0  0  0  0  0  0  0  0  0  0
    0.7277    1.1038    3.2247 H   0  0  0  0  0  0  0  0  0  0  0  0
    1.0600    1.1597    4.9646 H   0  0  0  0  0  0  0  0  0  0  0  0
   -0.6120    1.1860    4.3809 H   0  0  0  0  0  0  0  0  0  0  0  0
   -2.3719    1.0707   -0.6207 C   0  0  0  0  0  0  0  0  0  0  0  0
   -2.1525    2.4661   -0.7194 C   0  0  0  0  0  0  0  0  0  0  0  0
   -2.4841    3.1222   -1.9139 C   0  0  0  0  0  0  0  0  0  0  0  0
   -2.3126    4.1936   -1.9950 H   0  0  0  0  0  0  0  0  0  0  0  0
   -3.0284    2.4184   -2.9949 C   0  0  0  0  0  0  0  0  0  0  0  0
   -3.2451    1.0378   -2.8849 C   0  0  0  0  0  0  0  0  0  0  0  0
   -3.6657    0.4887   -3.7251 H   0  0  0  0  0  0  0  0  0  0  0  0
   -2.9250    0.3485   -1.7079 C   0  0  0  0  0  0  0  0  0  0  0  0
   -1.5904    3.2691    0.4037 C   0  0  0  0  0  0  0  0  0  0  0  0
   -0.6855    3.8158    0.0821 H   0  0  0  0  0  0  0  0  0  0  0  0
   -1.2608    2.6615    1.2608 H   0  0  0  0  0  0  0  0  0  0  0  0
   -2.3118    4.0081    0.7745 H   0  0  0  0  0  0  0  0  0  0  0  0
   -3.3856    3.1256   -4.2615 C   0  0  0  0  0  0  0  0  0  0  0  0
   -2.8782    2.6754   -5.1273 H   0  0  0  0  0  0  0  0  0  0  0  0
   -3.1159    4.1896   -4.2478 H   0  0  0  0  0  0  0  0  0  0  0  0
   -4.4668    3.0684   -4.4556 H   0  0  0  0  0  0  0  0  0  0  0  0
   -3.1895   -1.1169   -1.6420 C   0  0  0  0  0  0  0  0  0  0  0  0
   -4.2628   -1.3381   -1.6952 H   0  0  0  0  0  0  0  0  0  0  0  0
   -2.7901   -1.5981   -0.7357 H   0  0  0  0  0  0  0  0  0  0  0  0
   -2.6959   -1.6436   -2.4790 H   0  0  0  0  0  0  0  0  0  0  0  0
  1  2  1  0  0  0  0
  1  3  2  0  0  0  0
  3  4  1  0  0  0  0
  2  5  1  0  0  0  0
  5  6  1  0  0  0  0
  5  7  1  0  0  0  0
  7  8  1  0  0  0  0
  7  9  1  0  0  0  0
  7 10  1  0  0  0  0
  5 11  1  0  0  0  0
 11 12  1  0  0  0  0
 11 13  1  0  0  0  0
 11 14  1  0  0  0  0
  2 15  1  0  0  0  0
 15 24  1  0  0  0  0
 15 16  2  0  0  0  0
 16 17  1  0  0  0  0
 16 18  1  0  0  0  0
 18 19  1  0  0  0  0
 18 20  2  0  0  0  0
 20 21  1  0  0  0  0
 20 22  1  0  0  0  0
 22 24  2  0  0  0  0
 22 23  1  0  0  0  0
  3 24  1  0  0  0  0
  1 25  1  0  0  0  0
  1 26  1  0  0  0  0
 27 29  1  0  0  0  0
 28 29  1  0  0  0  0
 27 30  1  0  0  0  0
 30 31  1  0  0  0  0
 28 32  1  0  0  0  0
 32 33  1  0  0  0  0
 27 34  1  0  0  0  0
 34 35  2  0  0  0  0
 35 36  1  0  0  0  0
 36 37  1  0  0  0  0
 36 38  2  0  0  0  0
 38 39  1  0  0  0  0
 39 40  1  0  0  0  0
 34 41  1  0  0  0  0
 35 42  1  0  0  0  0
 42 43  1  0  0  0  0
 42 44  1  0  0  0  0
 42 45  1  0  0  0  0
 38 46  1  0  0  0  0
 46 47  1  0  0  0  0
 46 48  1  0  0  0  0
 46 49  1  0  0  0  0
 41 50  1  0  0  0  0
 50 51  1  0  0  0  0
 50 52  1  0  0  0  0
 50 53  1  0  0  0  0
 28 54  1  0  0  0  0
 54 55  1  0  0  0  0
 55 56  2  0  0  0  0
 56 57  1  0  0  0  0
 56 58  1  0  0  0  0
 58 59  2  0  0  0  0
 59 60  1  0  0  0  0
 54 61  2  0  0  0  0
 55 62  1  0  0  0  0
 62 63  1  0  0  0  0
 62 64  1  0  0  0  0
 62 65  1  0  0  0  0
 58 66  1  0  0  0  0
 66 67  1  0  0  0  0
 66 68  1  0  0  0  0
 66 69  1  0  0  0  0
 61 70  1  0  0  0  0
 70 71  1  0  0  0  0
 70 72  1  0  0  0  0
 70 73  1  0  0  0  0
 30 32  2  0  0  0  0
 39 41  2  0  0  0  0
 59 61  1  0  0  0  0
  1 29  1  0  0  0  0
M  END
> <FrozenCore-PM6_ENERGY>
65.480

> <RMSD_CONF_CG-CS>
3.062795

> <RMSD_CONF_GO-CS>
0.000000

> <UID>


> <freeEnergyA>
-2400.94421516

> <freeEnergyF>
-2400.92850541

> <freeEnergyE>
-2400.94421516

> <freeEnergyC>
-2055.68857069

> <freeEnergyL>
-923.082063529

> <freeEnergyX>
-2134.22385518

> <freeEnergyZ>
-2055.67028435

> <freeEnergyD>
-2055.71274934

> <G_Propene>
-117.738020895

> <G_Ethene>
-78.4716324751

> <G_HoveydaProd>
-502.204109499

> <G_SIMes>
-924.27249048

> <G_HG_RuCl2_SIMes>
-2402.13728523

> <DG_referenceProductionBarrier>
0.01468968

> <hartree_to_kcalmol>
627.49467516

> <DFT_IDENTIFIER>
1706950320733

> <DFT_MACHINE>
158.36.42.38

> <XTB_IDENTIFIER>
NREC

> <XTB_MACHINE>
NREC

> <DE_Synth>
1.65854309831422404

> <DESCRIPTOR_DEFINITION_1>
desc1=( echo "1 * ( e( $hartree_to_kcalmol * ( ( $freeEnergyZ - $freeEnergyD ) - ( $freeEnergyX + 2*$G_Ethene - $freeEnergyD - 2*$G_Propene ) - $DDG_reference_HGII ) / $kT ) ) " | bc -l )

> <DESCRIPTOR_DEFINITION_2>
desc2=$( echo "1 * ( $hartree_to_kcalmol * ( ( $freeEnergyZ - $freeEnergyD ) - ( $freeEnergyX + 2*$G_Ethene - $freeEnergyD - 2*$G_Propene ) ) )" | bc -l )

> <DESCRIPTOR_DEFINITION_3>
desc3=$( echo "1 * $hartree_to_kcalmol * ( $DG_referenceProductionBarrier - ( $freeEnergyX + 2*$G_Ethene - $freeEnergyD - 2*$G_Propene ) )" | bc -l )

> <WEIGHT_DEFINITION_1>
w1=$( echo "1 / ( 1 + e( $hartree_to_kcalmol * ( ( ( $freeEnergyX + 2*$G_Ethene - $freeEnergyD - 2*$G_Propene ) ) - ( $DG_referenceProductionBarrier + $magnitude4 ) ) / $kT ) )" | bc -l )

> <WEIGHT_DEFINITION_2>
w2=$( echo "1 / ( 1 + e( $hartree_to_kcalmol * ( ABS( $freeEnergyC + $G_HoveydaProd - $freeEnergyA - 2*${G_Ethene} - $DG_referencePrecursorStabilityHII ) - ( $DDG_referencePrecursorStability + $magnitude1 ) ) / $kT ) )" | bc -l )

> <WEIGHT_DEFINITION_3>
w3=$( echo "1 / ( 1 + e( $hartree_to_kcalmol * ( ( $freeEnergyE + $G_SIMes - $G_HG_RuCl2_SIMes - $freeEnergyL ) - ( $DG_referenceSynt  + $magnitude1 ) ) / $kT ) )" | bc -l )

> <WEIGHT_DEFINITION_4>
w4=$( echo "1 / ( 1 + e( $hartree_to_kcalmol * ( - ( $freeEnergyF - $freeEnergyA ) + $magnitude2 ) / $kT ) )" | bc -l )

> <FITNESS_DEFINITION>
fitness=$( echo "( $desc1 + $desc2 + $desc3 ) * $w1 * $w2 * $w3 * $w4" | bc -l )

> <DESCRIPTOR_1>
.23473947656381103227

> <DESCRIPTOR_2>
13.048118125829223432

> <DESCRIPTOR_3>
.376763490332943000

> <WEIGHT_1>
.99994541494816294736

> <WEIGHT_2>
.99999999632477235877

> <WEIGHT_3>
.99999999981909151219

> <WEIGHT_4>
.99998680322709811834

> <FITNESS>
13.65869517585294261995

$$$$
