
  CDK     02052421093D

 64 68  0  0  0  0  0  0  0  0999 V2000
    0.2588   -1.1387   -3.5209 H   0  0  0  0  0  0  0  0  0  0  0  0
    0.3773   -2.3568   -3.6490 C   0  0  0  0  0  0  0  0  0  0  0  0
    1.0126   -2.0968   -4.5315 H   0  0  0  0  0  0  0  0  0  0  0  0
    0.9425   -2.6291   -2.3097 C   0  0  0  0  0  0  0  0  0  0  0  0
    0.7644   -3.6311   -1.8900 H   0  0  0  0  0  0  0  0  0  0  0  0
    1.9176   -2.1829   -2.0589 H   0  0  0  0  0  0  0  0  0  0  0  0
   -0.7718   -1.4176   -2.1044 Ru  0  0  0  0  0  0  0  0  0  0  0  0
   -0.9786   -2.8597   -3.7883 C   0  0  0  0  0  0  0  0  0  0  0  0
   -1.2351   -3.8258   -3.3319 H   0  0  0  0  0  0  0  0  0  0  0  0
   -1.5714   -2.5424   -4.6605 H   0  0  0  0  0  0  0  0  0  0  0  0
   -1.6482   -3.0528   -0.6957 Cl  0  0  0  0  0  0  0  0  0  0  0  0
   -1.2471    0.5638   -3.2822 Cl  0  0  0  0  0  0  0  0  0  0  0  0
   -0.3016   -0.0287   -0.2330 P   0  0  0  0  0  0  0  0  0  0  0  0
   -1.7810    0.9692    0.4019 C   0  0  0  0  0  0  0  0  0  0  0  0
   -1.5899    1.1335    1.4874 H   0  0  0  0  0  0  0  0  0  0  0  0
   -1.9838    2.3466   -0.2561 C   0  0  0  0  0  0  0  0  0  0  0  0
   -1.0924    2.9893   -0.1155 H   0  0  0  0  0  0  0  0  0  0  0  0
   -2.1136    2.2111   -1.3501 H   0  0  0  0  0  0  0  0  0  0  0  0
    1.4472   -1.8720    1.0157 C   0  0  0  0  0  0  0  0  0  0  0  0
    0.9618   -2.6961    0.4524 H   0  0  0  0  0  0  0  0  0  0  0  0
    2.2239   -1.4438    0.3503 H   0  0  0  0  0  0  0  0  0  0  0  0
   -4.4832    2.2073    0.1870 C   0  0  0  0  0  0  0  0  0  0  0  0
   -4.7163    2.0800   -0.8940 H   0  0  0  0  0  0  0  0  0  0  0  0
   -5.3526    2.7279    0.6401 H   0  0  0  0  0  0  0  0  0  0  0  0
    0.9632    1.2983   -0.6767 C   0  0  0  0  0  0  0  0  0  0  0  0
    0.3592    1.9516   -1.3441 H   0  0  0  0  0  0  0  0  0  0  0  0
    0.3732   -0.8195    1.3414 C   0  0  0  0  0  0  0  0  0  0  0  0
    0.8593    0.0257    1.8801 H   0  0  0  0  0  0  0  0  0  0  0  0
   -3.0563    0.1166    0.2466 C   0  0  0  0  0  0  0  0  0  0  0  0
   -3.2127   -0.0735   -0.8400 H   0  0  0  0  0  0  0  0  0  0  0  0
   -2.9270   -0.8804    0.7087 H   0  0  0  0  0  0  0  0  0  0  0  0
    1.0406   -3.0042    3.2438 C   0  0  0  0  0  0  0  0  0  0  0  0
    0.5598   -3.8850    2.7625 H   0  0  0  0  0  0  0  0  0  0  0  0
    1.5171   -3.3716    4.1767 H   0  0  0  0  0  0  0  0  0  0  0  0
   -4.2872    0.8269    0.8231 C   0  0  0  0  0  0  0  0  0  0  0  0
   -5.1876    0.1950    0.6764 H   0  0  0  0  0  0  0  0  0  0  0  0
   -4.1598    0.9424    1.9239 H   0  0  0  0  0  0  0  0  0  0  0  0
   -3.2149    3.0563    0.3298 C   0  0  0  0  0  0  0  0  0  0  0  0
   -3.0361    3.2680    1.4091 H   0  0  0  0  0  0  0  0  0  0  0  0
   -3.3464    4.0411   -0.1654 H   0  0  0  0  0  0  0  0  0  0  0  0
    2.0947   -2.4265    2.2926 C   0  0  0  0  0  0  0  0  0  0  0  0
    2.6485   -1.6099    2.8101 H   0  0  0  0  0  0  0  0  0  0  0  0
    2.8477   -3.1981    2.0279 H   0  0  0  0  0  0  0  0  0  0  0  0
   -0.6893   -1.4141    2.2849 C   0  0  0  0  0  0  0  0  0  0  0  0
   -1.4469   -0.6519    2.5554 H   0  0  0  0  0  0  0  0  0  0  0  0
   -1.2206   -2.2330    1.7586 H   0  0  0  0  0  0  0  0  0  0  0  0
    2.1379    0.7847   -1.5234 C   0  0  0  0  0  0  0  0  0  0  0  0
    2.7714    0.0986   -0.9185 H   0  0  0  0  0  0  0  0  0  0  0  0
    1.7460    0.1981   -2.3776 H   0  0  0  0  0  0  0  0  0  0  0  0
    1.4776    2.1369    0.5047 C   0  0  0  0  0  0  0  0  0  0  0  0
    2.1080    1.4998    1.1636 H   0  0  0  0  0  0  0  0  0  0  0  0
    0.6389    2.5047    1.1314 H   0  0  0  0  0  0  0  0  0  0  0  0
   -0.0345   -1.9590    3.5635 C   0  0  0  0  0  0  0  0  0  0  0  0
   -0.8134   -2.3914    4.2257 H   0  0  0  0  0  0  0  0  0  0  0  0
    0.4288   -1.1179    4.1288 H   0  0  0  0  0  0  0  0  0  0  0  0
    3.4924    2.8296   -0.8681 C   0  0  0  0  0  0  0  0  0  0  0  0
    4.1922    2.2353   -0.2373 H   0  0  0  0  0  0  0  0  0  0  0  0
    4.0739    3.6926   -1.2541 H   0  0  0  0  0  0  0  0  0  0  0  0
    2.3266    3.3161    0.0020 C   0  0  0  0  0  0  0  0  0  0  0  0
    1.6806    3.9997   -0.5937 H   0  0  0  0  0  0  0  0  0  0  0  0
    2.7024    3.9069    0.8633 H   0  0  0  0  0  0  0  0  0  0  0  0
    2.9942    1.9558   -2.0262 C   0  0  0  0  0  0  0  0  0  0  0  0
    3.8503    1.5736   -2.6206 H   0  0  0  0  0  0  0  0  0  0  0  0
    2.3799    2.5749   -2.7179 H   0  0  0  0  0  0  0  0  0  0  0  0
  1  2  1  0  0  0  0
  1  7  1  0  0  0  0
  2  3  1  0  0  0  0
  2  4  1  0  0  0  0
  4  5  1  0  0  0  0
  4  6  1  0  0  0  0
  7  8  1  0  0  0  0
  4  7  1  0  0  0  0
  2  8  1  0  0  0  0
  8  9  1  0  0  0  0
  8 10  1  0  0  0  0
  7 11  1  0  0  0  0
  7 12  1  0  0  0  0
 13 14  1  0  0  0  0
 14 15  1  0  0  0  0
 14 16  1  0  0  0  0
 16 17  1  0  0  0  0
 16 18  1  0  0  0  0
 19 20  1  0  0  0  0
 19 21  1  0  0  0  0
 22 23  1  0  0  0  0
 22 24  1  0  0  0  0
 13 25  1  0  0  0  0
 25 26  1  0  0  0  0
 13 27  1  0  0  0  0
 27 28  1  0  0  0  0
 14 29  1  0  0  0  0
 29 30  1  0  0  0  0
 29 31  1  0  0  0  0
 32 33  1  0  0  0  0
 32 34  1  0  0  0  0
 22 35  1  0  0  0  0
 35 36  1  0  0  0  0
 35 37  1  0  0  0  0
 16 38  1  0  0  0  0
 38 39  1  0  0  0  0
 38 40  1  0  0  0  0
 19 41  1  0  0  0  0
 41 42  1  0  0  0  0
 41 43  1  0  0  0  0
 27 44  1  0  0  0  0
 44 45  1  0  0  0  0
 44 46  1  0  0  0  0
 25 47  1  0  0  0  0
 47 48  1  0  0  0  0
 47 49  1  0  0  0  0
 25 50  1  0  0  0  0
 50 51  1  0  0  0  0
 50 52  1  0  0  0  0
 32 53  1  0  0  0  0
 53 54  1  0  0  0  0
 53 55  1  0  0  0  0
 56 57  1  0  0  0  0
 56 58  1  0  0  0  0
 50 59  1  0  0  0  0
 59 60  1  0  0  0  0
 59 61  1  0  0  0  0
 47 62  1  0  0  0  0
 62 63  1  0  0  0  0
 62 64  1  0  0  0  0
 19 27  1  0  0  0  0
 22 38  1  0  0  0  0
 29 35  1  0  0  0  0
 32 41  1  0  0  0  0
 44 53  1  0  0  0  0
 56 59  1  0  0  0  0
 56 62  1  0  0  0  0
  7 13  1  0  0  0  0
M  END
>  <DFT-ENERGY>
-2178.67498621

$$$$
