
  CDK     08132411233D

 43 43  0  0  0  0  0  0  0  0999 V2000
    1.6306    1.0787   -0.0975 Ru  0  0  0  0  0  0  0  0  0  0  0  0
    2.9077    1.5744   -1.4946 C   0  0  0  0  0  0  0  0  0  0  0  0
    2.5564    2.3359   -2.2146 H   0  0  0  0  0  0  0  0  0  0  0  0
    3.5561    2.2040   -0.1992 C   0  0  0  0  0  0  0  0  0  0  0  0
    3.5875    3.2963   -0.3680 H   0  0  0  0  0  0  0  0  0  0  0  0
    2.7993    1.9927    1.1751 C   0  0  0  0  0  0  0  0  0  0  0  0
    3.3591    1.3430    1.8729 H   0  0  0  0  0  0  0  0  0  0  0  0
    2.4049    2.9357    1.5961 H   0  0  0  0  0  0  0  0  0  0  0  0
    4.5419    1.7175   -0.0819 H   0  0  0  0  0  0  0  0  0  0  0  0
    3.5063    0.7444   -1.9128 H   0  0  0  0  0  0  0  0  0  0  0  0
    0.5005    3.1440   -0.4716 Cl  0  0  0  0  0  0  0  0  0  0  0  0
    2.8679   -0.9450    0.2672 Cl  0  0  0  0  0  0  0  0  0  0  0  0
   -0.3412   -0.2228    0.0319 P   0  0  0  0  0  0  0  0  0  0  0  0
   -2.0358    0.5856   -0.0346 C   0  0  0  0  0  0  0  0  0  0  0  0
   -2.7318   -0.2754    0.0899 H   0  0  0  0  0  0  0  0  0  0  0  0
   -2.2412    1.5756    1.1179 C   0  0  0  0  0  0  0  0  0  0  0  0
   -2.1887    1.0859    2.1092 H   0  0  0  0  0  0  0  0  0  0  0  0
   -1.4838    2.3832    1.0743 H   0  0  0  0  0  0  0  0  0  0  0  0
    0.3568   -0.7752   -2.6190 C   0  0  0  0  0  0  0  0  0  0  0  0
    1.4464   -0.7550   -2.4167 H   0  0  0  0  0  0  0  0  0  0  0  0
    0.1888   -1.3765   -3.5361 H   0  0  0  0  0  0  0  0  0  0  0  0
   -0.2792   -1.2334    1.6111 C   0  0  0  0  0  0  0  0  0  0  0  0
    0.5058   -1.9761    1.3587 H   0  0  0  0  0  0  0  0  0  0  0  0
   -0.3792   -1.4162   -1.4306 C   0  0  0  0  0  0  0  0  0  0  0  0
    0.1850   -2.8051   -1.1217 C   0  0  0  0  0  0  0  0  0  0  0  0
   -2.2993    1.2413   -1.3963 C   0  0  0  0  0  0  0  0  0  0  0  0
   -3.3180    1.6815   -1.3946 H   0  0  0  0  0  0  0  0  0  0  0  0
   -1.5711    2.0551   -1.5829 H   0  0  0  0  0  0  0  0  0  0  0  0
   -1.5964   -1.9448    1.9330 C   0  0  0  0  0  0  0  0  0  0  0  0
   -1.9819   -2.5364    1.0787 H   0  0  0  0  0  0  0  0  0  0  0  0
   -1.4408   -2.6448    2.7799 H   0  0  0  0  0  0  0  0  0  0  0  0
    0.2518   -0.4014    2.7867 C   0  0  0  0  0  0  0  0  0  0  0  0
    0.3536   -1.0503    3.6810 H   0  0  0  0  0  0  0  0  0  0  0  0
   -0.4202    0.4370    3.0533 H   0  0  0  0  0  0  0  0  0  0  0  0
    1.2539    0.0085    2.5542 H   0  0  0  0  0  0  0  0  0  0  0  0
   -3.2453    2.0398    1.0290 H   0  0  0  0  0  0  0  0  0  0  0  0
   -2.3878   -1.2315    2.2390 H   0  0  0  0  0  0  0  0  0  0  0  0
   -1.4614   -1.5035   -1.6720 H   0  0  0  0  0  0  0  0  0  0  0  0
   -2.2558    0.5173   -2.2331 H   0  0  0  0  0  0  0  0  0  0  0  0
    0.1490   -3.4201   -2.0451 H   0  0  0  0  0  0  0  0  0  0  0  0
   -0.3944   -3.3391   -0.3443 H   0  0  0  0  0  0  0  0  0  0  0  0
    1.2417   -2.7332   -0.7959 H   0  0  0  0  0  0  0  0  0  0  0  0
    0.0228    0.2614   -2.8211 H   0  0  0  0  0  0  0  0  0  0  0  0
  2  4  1  0  0  0  0
  2  1  1  0  0  0  0
  2  3  1  0  0  0  0
  4  6  1  0  0  0  0
  4  5  1  0  0  0  0
  6  1  1  0  0  0  0
  6  8  1  0  0  0  0
  7  6  1  0  0  0  0
  9  4  1  0  0  0  0
 10  2  1  0  0  0  0
  1 11  1  0  0  0  0
  1 12  1  0  0  0  0
 13 14  1  0  0  0  0
 13 22  1  0  0  0  0
 13 24  1  0  0  0  0
 14 15  1  0  0  0  0
 14 16  1  0  0  0  0
 14 26  1  0  0  0  0
 16 17  1  0  0  0  0
 16 18  1  0  0  0  0
 19 20  1  0  0  0  0
 19 21  1  0  0  0  0
 19 24  1  0  0  0  0
 22 23  1  0  0  0  0
 22 29  1  0  0  0  0
 22 32  1  0  0  0  0
 24 25  1  0  0  0  0
 26 27  1  0  0  0  0
 26 28  1  0  0  0  0
 29 30  1  0  0  0  0
 29 31  1  0  0  0  0
 32 33  1  0  0  0  0
 32 34  1  0  0  0  0
 32 35  1  0  0  0  0
 16 36  1  0  0  0  0
 29 37  1  0  0  0  0
 24 38  1  0  0  0  0
 26 39  1  0  0  0  0
 25 40  1  0  0  0  0
 25 41  1  0  0  0  0
 25 42  1  0  0  0  0
 19 43  1  0  0  0  0
  1 13  1  0  0  0  0
M  END
>  <DFT-ENERGY>
-1828.91053616

$$$$
