
  CDK     08132408523D

 43 44  0  0  0  0  0  0  0  0999 V2000
    0.9243   -0.0780   -3.1820 H   0  0  0  0  0  0  0  0  0  0  0  0
    2.1547   -0.0736   -3.1990 C   0  0  0  0  0  0  0  0  0  0  0  0
    2.0317    0.4319   -4.1883 H   0  0  0  0  0  0  0  0  0  0  0  0
    2.3860    0.6712   -1.9398 C   0  0  0  0  0  0  0  0  0  0  0  0
    3.3374    0.4768   -1.4182 H   0  0  0  0  0  0  0  0  0  0  0  0
    2.0311    1.7136   -1.8929 H   0  0  0  0  0  0  0  0  0  0  0  0
    0.9843   -0.8491   -1.5857 Ru  0  0  0  0  0  0  0  0  0  0  0  0
    2.4935   -1.4814   -3.0806 C   0  0  0  0  0  0  0  0  0  0  0  0
    3.3865   -1.7725   -2.5112 H   0  0  0  0  0  0  0  0  0  0  0  0
    2.1565   -2.1712   -3.8709 H   0  0  0  0  0  0  0  0  0  0  0  0
    2.4676   -1.7456    0.0079 Cl  0  0  0  0  0  0  0  0  0  0  0  0
   -1.0342   -0.9768   -2.8254 Cl  0  0  0  0  0  0  0  0  0  0  0  0
   -0.2737   -0.1677    0.3325 P   0  0  0  0  0  0  0  0  0  0  0  0
   -1.5582    1.1923    0.0098 C   0  0  0  0  0  0  0  0  0  0  0  0
   -1.6171    1.7193    0.9867 H   0  0  0  0  0  0  0  0  0  0  0  0
   -1.0418    2.1739   -1.0495 C   0  0  0  0  0  0  0  0  0  0  0  0
   -0.0323    2.5601   -0.8120 H   0  0  0  0  0  0  0  0  0  0  0  0
   -0.9958    1.6805   -2.0401 H   0  0  0  0  0  0  0  0  0  0  0  0
   -1.8434   -2.5115    0.1346 C   0  0  0  0  0  0  0  0  0  0  0  0
   -1.0477   -3.0363   -0.4337 H   0  0  0  0  0  0  0  0  0  0  0  0
   -2.4580   -3.2819    0.6450 H   0  0  0  0  0  0  0  0  0  0  0  0
    0.7460    0.5410    1.7567 C   0  0  0  0  0  0  0  0  0  0  0  0
    1.3753   -0.3303    2.0310 H   0  0  0  0  0  0  0  0  0  0  0  0
   -1.2247   -1.5738    1.1792 C   0  0  0  0  0  0  0  0  0  0  0  0
   -0.3499   -2.3871    2.1436 C   0  0  0  0  0  0  0  0  0  0  0  0
   -2.9619    0.6935   -0.3472 C   0  0  0  0  0  0  0  0  0  0  0  0
   -3.6412    1.5667   -0.4428 H   0  0  0  0  0  0  0  0  0  0  0  0
   -2.9581    0.1584   -1.3158 H   0  0  0  0  0  0  0  0  0  0  0  0
   -0.0959    0.9696    2.9649 C   0  0  0  0  0  0  0  0  0  0  0  0
   -0.8242    0.2010    3.2877 H   0  0  0  0  0  0  0  0  0  0  0  0
    0.5723    1.1776    3.8265 H   0  0  0  0  0  0  0  0  0  0  0  0
    1.6882    1.6628    1.3156 C   0  0  0  0  0  0  0  0  0  0  0  0
    2.3272    1.9683    2.1703 H   0  0  0  0  0  0  0  0  0  0  0  0
    1.1351    2.5650    0.9833 H   0  0  0  0  0  0  0  0  0  0  0  0
    2.3500    1.3286    0.4979 H   0  0  0  0  0  0  0  0  0  0  0  0
   -1.7304    3.0416   -1.1238 H   0  0  0  0  0  0  0  0  0  0  0  0
   -0.6575    1.9051    2.7636 H   0  0  0  0  0  0  0  0  0  0  0  0
   -2.0374   -1.0772    1.7543 H   0  0  0  0  0  0  0  0  0  0  0  0
   -3.3899    0.0276    0.4265 H   0  0  0  0  0  0  0  0  0  0  0  0
   -0.9471   -3.2328    2.5438 H   0  0  0  0  0  0  0  0  0  0  0  0
    0.0117   -1.8001    3.0083 H   0  0  0  0  0  0  0  0  0  0  0  0
    0.5321   -2.8070    1.6217 H   0  0  0  0  0  0  0  0  0  0  0  0
   -2.4758   -1.9888   -0.6036 H   0  0  0  0  0  0  0  0  0  0  0  0
  1  2  1  0  0  0  0
  1  7  1  0  0  0  0
  2  3  1  0  0  0  0
  2  4  1  0  0  0  0
  4  5  1  0  0  0  0
  6  4  1  0  0  0  0
  7  8  1  0  0  0  0
  7  4  1  0  0  0  0
  8  2  1  0  0  0  0
  8  9  1  0  0  0  0
 10  8  1  0  0  0  0
  7 11  1  0  0  0  0
  7 12  1  0  0  0  0
 13 14  1  0  0  0  0
 13 22  1  0  0  0  0
 13 24  1  0  0  0  0
 14 15  1  0  0  0  0
 14 16  1  0  0  0  0
 14 26  1  0  0  0  0
 16 17  1  0  0  0  0
 16 18  1  0  0  0  0
 19 20  1  0  0  0  0
 19 21  1  0  0  0  0
 19 24  1  0  0  0  0
 22 23  1  0  0  0  0
 22 29  1  0  0  0  0
 22 32  1  0  0  0  0
 24 25  1  0  0  0  0
 26 27  1  0  0  0  0
 26 28  1  0  0  0  0
 29 30  1  0  0  0  0
 29 31  1  0  0  0  0
 32 33  1  0  0  0  0
 32 34  1  0  0  0  0
 32 35  1  0  0  0  0
 16 36  1  0  0  0  0
 29 37  1  0  0  0  0
 24 38  1  0  0  0  0
 26 39  1  0  0  0  0
 25 40  1  0  0  0  0
 25 41  1  0  0  0  0
 25 42  1  0  0  0  0
 19 43  1  0  0  0  0
  7 13  1  0  0  0  0
M  END
>  <DFT-ENERGY>
-1828.87332915

$$$$
