DClIMes-3_A1
  CDK     08132410123D

 73 77  0  0  0  0  0  0  0  0999 V2000
    0.6765   -0.2892   -0.0691 Ru  0  0  0  0  0  0  0  0  0  0  0  0
    2.4543   -0.2892   -1.4583 O   0  0  0  0  0  0  0  0  0  0  0  0
    1.8867   -1.2225    0.9350 C   0  0  0  0  0  0  0  0  0  0  0  0
    1.6539   -1.5154    1.9577 H   0  0  0  0  0  0  0  0  0  0  0  0
    2.6898    0.4860   -2.6841 C   0  0  0  0  0  0  0  0  0  0  0  0
    3.0993   -0.2142   -3.4426 H   0  0  0  0  0  0  0  0  0  0  0  0
    1.2679    0.9272   -3.0006 C   0  0  0  0  0  0  0  0  0  0  0  0
    1.1978    1.4279   -3.9694 H   0  0  0  0  0  0  0  0  0  0  0  0
    0.8802    1.6230   -2.2283 H   0  0  0  0  0  0  0  0  0  0  0  0
    0.5800    0.0563   -3.0105 H   0  0  0  0  0  0  0  0  0  0  0  0
    3.6283    1.6314   -2.3503 C   0  0  0  0  0  0  0  0  0  0  0  0
    4.6619    1.3027   -2.2001 H   0  0  0  0  0  0  0  0  0  0  0  0
    3.3094    2.1167   -1.4065 H   0  0  0  0  0  0  0  0  0  0  0  0
    3.6234    2.4026   -3.1272 H   0  0  0  0  0  0  0  0  0  0  0  0
    3.4465   -1.0876   -0.9533 C   0  0  0  0  0  0  0  0  0  0  0  0
    4.6156   -1.4363   -1.6063 C   0  0  0  0  0  0  0  0  0  0  0  0
    4.8348   -1.0860   -2.6123 H   0  0  0  0  0  0  0  0  0  0  0  0
    5.5168   -2.2674   -0.9488 C   0  0  0  0  0  0  0  0  0  0  0  0
    6.4394   -2.5551   -1.4576 H   0  0  0  0  0  0  0  0  0  0  0  0
    5.2668   -2.7390    0.3365 C   0  0  0  0  0  0  0  0  0  0  0  0
    5.9916   -3.3838    0.8308 H   0  0  0  0  0  0  0  0  0  0  0  0
    4.0971   -2.3787    0.9781 C   0  0  0  0  0  0  0  0  0  0  0  0
    3.9039   -2.7333    1.9894 H   0  0  0  0  0  0  0  0  0  0  0  0
    3.1616   -1.5633    0.3387 C   0  0  0  0  0  0  0  0  0  0  0  0
    1.2733    1.8925    0.4886 Cl  0  0  0  0  0  0  0  0  0  0  0  0
   -0.1439   -1.9895   -1.4238 Cl  0  0  0  0  0  0  0  0  0  0  0  0
   -1.2286   -0.6966    2.3512 N   0  0  0  0  0  0  0  0  0  0  0  0
   -0.9108   -0.2321    1.0594 C   0  0  0  0  0  0  0  0  0  0  0  0
   -2.1075    0.4088    0.6298 N   0  0  0  0  0  0  0  0  0  0  0  0
   -3.1111    0.3345    1.6389 C   0  0  0  0  0  0  0  0  0  0  0  0
   -2.5697   -0.3464    2.7036 C   0  0  0  0  0  0  0  0  0  0  0  0
   -4.6415    0.9981    1.4435 Cl  0  0  0  0  0  0  0  0  0  0  0  0
   -3.2408   -0.7519    4.1884 Cl  0  0  0  0  0  0  0  0  0  0  0  0
    0.2943   -0.7340    4.2922 C   0  0  0  0  0  0  0  0  0  0  0  0
   -0.4027   -1.4324    3.2766 C   0  0  0  0  0  0  0  0  0  0  0  0
   -0.3319   -2.8421    3.1752 C   0  0  0  0  0  0  0  0  0  0  0  0
    0.3906   -3.5485    4.1444 C   0  0  0  0  0  0  0  0  0  0  0  0
    1.0450   -2.8733    5.1845 C   0  0  0  0  0  0  0  0  0  0  0  0
    1.0066   -1.4713    5.2438 C   0  0  0  0  0  0  0  0  0  0  0  0
    0.4420   -4.6339    4.0863 H   0  0  0  0  0  0  0  0  0  0  0  0
    1.5371   -0.9507    6.0386 H   0  0  0  0  0  0  0  0  0  0  0  0
    0.2843    0.7557    4.3230 C   0  0  0  0  0  0  0  0  0  0  0  0
    0.9377    1.1756    5.0979 H   0  0  0  0  0  0  0  0  0  0  0  0
   -0.7284    1.1499    4.4983 H   0  0  0  0  0  0  0  0  0  0  0  0
    0.6272    1.1735    3.3542 H   0  0  0  0  0  0  0  0  0  0  0  0
   -0.9829   -3.5476    2.0361 C   0  0  0  0  0  0  0  0  0  0  0  0
   -2.0758   -3.4228    2.0484 H   0  0  0  0  0  0  0  0  0  0  0  0
   -0.7774   -4.6252    2.0197 H   0  0  0  0  0  0  0  0  0  0  0  0
   -0.6274   -3.1419    1.0632 H   0  0  0  0  0  0  0  0  0  0  0  0
    1.7905   -3.6352    6.2303 C   0  0  0  0  0  0  0  0  0  0  0  0
    1.3043   -3.5323    7.2125 H   0  0  0  0  0  0  0  0  0  0  0  0
    2.8212   -3.2681    6.3414 H   0  0  0  0  0  0  0  0  0  0  0  0
    1.8533   -4.7099    6.0144 H   0  0  0  0  0  0  0  0  0  0  0  0
   -2.3605    1.0666   -0.6316 C   0  0  0  0  0  0  0  0  0  0  0  0
   -2.9115    0.3258   -1.7077 C   0  0  0  0  0  0  0  0  0  0  0  0
   -3.2091    0.9925   -2.9032 C   0  0  0  0  0  0  0  0  0  0  0  0
   -2.9796    2.3689   -3.0390 C   0  0  0  0  0  0  0  0  0  0  0  0
   -2.4449    3.0918   -1.9656 C   0  0  0  0  0  0  0  0  0  0  0  0
   -2.1353    2.4598   -0.7526 C   0  0  0  0  0  0  0  0  0  0  0  0
   -3.6273    0.4301   -3.7358 H   0  0  0  0  0  0  0  0  0  0  0  0
   -2.2688    4.1610   -2.0656 H   0  0  0  0  0  0  0  0  0  0  0  0
   -3.1993   -1.1332   -1.6080 C   0  0  0  0  0  0  0  0  0  0  0  0
   -2.7836   -1.6061   -0.7050 H   0  0  0  0  0  0  0  0  0  0  0  0
   -2.7472   -1.6856   -2.4507 H   0  0  0  0  0  0  0  0  0  0  0  0
   -4.2797   -1.3301   -1.6193 H   0  0  0  0  0  0  0  0  0  0  0  0
   -3.3186    3.0537   -4.3227 C   0  0  0  0  0  0  0  0  0  0  0  0
   -4.4083    3.0881   -4.4726 H   0  0  0  0  0  0  0  0  0  0  0  0
   -2.8909    2.5267   -5.1877 H   0  0  0  0  0  0  0  0  0  0  0  0
   -2.9550    4.0887   -4.3637 H   0  0  0  0  0  0  0  0  0  0  0  0
   -1.5932    3.2827    0.3654 C   0  0  0  0  0  0  0  0  0  0  0  0
   -0.6954    3.8417    0.0472 H   0  0  0  0  0  0  0  0  0  0  0  0
   -1.2645    2.6911    1.2337 H   0  0  0  0  0  0  0  0  0  0  0  0
   -2.3325    4.0122    0.7222 H   0  0  0  0  0  0  0  0  0  0  0  0
  1  2  1  0  0  0  0
  1  3  2  0  0  0  0
  3  4  1  0  0  0  0
  2  5  1  0  0  0  0
  5  6  1  0  0  0  0
  5  7  1  0  0  0  0
  7  8  1  0  0  0  0
  7  9  1  0  0  0  0
  7 10  1  0  0  0  0
  5 11  1  0  0  0  0
 11 12  1  0  0  0  0
 11 13  1  0  0  0  0
 11 14  1  0  0  0  0
  2 15  1  0  0  0  0
 15 24  1  0  0  0  0
 15 16  2  0  0  0  0
 16 17  1  0  0  0  0
 16 18  1  0  0  0  0
 18 19  1  0  0  0  0
 18 20  2  0  0  0  0
 20 21  1  0  0  0  0
 20 22  1  0  0  0  0
 22 24  2  0  0  0  0
 22 23  1  0  0  0  0
  3 24  1  0  0  0  0
  1 25  1  0  0  0  0
  1 26  1  0  0  0  0
 27 28  1  0  0  0  0
 27 31  1  0  0  0  0
 28 29  1  0  0  0  0
 29 30  1  0  0  0  0
 30 31  2  0  0  0  0
 30 32  1  0  0  0  0
 31 33  1  0  0  0  0
  1 28  1  0  0  0  0
 34 35  2  0  0  0  0
 34 39  1  0  0  0  0
 35 36  1  0  0  0  0
 36 37  2  0  0  0  0
 37 38  1  0  0  0  0
 37 40  1  0  0  0  0
 38 39  2  0  0  0  0
 39 41  1  0  0  0  0
 27 35  1  0  0  0  0
 42 43  1  0  0  0  0
 42 44  1  0  0  0  0
 42 45  1  0  0  0  0
 34 42  1  0  0  0  0
 46 47  1  0  0  0  0
 46 48  1  0  0  0  0
 46 49  1  0  0  0  0
 36 46  1  0  0  0  0
 50 51  1  0  0  0  0
 50 52  1  0  0  0  0
 50 53  1  0  0  0  0
 38 50  1  0  0  0  0
 54 55  2  0  0  0  0
 54 59  1  0  0  0  0
 55 56  1  0  0  0  0
 56 57  2  0  0  0  0
 56 60  1  0  0  0  0
 57 58  1  0  0  0  0
 58 59  2  0  0  0  0
 58 61  1  0  0  0  0
 29 54  1  0  0  0  0
 62 63  1  0  0  0  0
 62 64  1  0  0  0  0
 62 65  1  0  0  0  0
 55 62  1  0  0  0  0
 66 67  1  0  0  0  0
 66 68  1  0  0  0  0
 66 69  1  0  0  0  0
 57 66  1  0  0  0  0
 70 71  1  0  0  0  0
 70 72  1  0  0  0  0
 70 73  1  0  0  0  0
 59 70  1  0  0  0  0
M  END
> <FrozenCore-PM6_ENERGY>
39.023

> <RMSD_CONF_CG-CS>
0.354956

> <RMSD_CONF_GO-CS>
0.000000

> <UID>


> <DESCRIPTOR_DEFINITION_1>
desc1=( echo "1 * ( e( $hartree_to_kcalmol * ( ( $freeEnergyZ - $freeEnergyD ) - ( $freeEnergyX + 2*$G_Ethene - $freeEnergyD - 2*$G_Propene ) - $DDG_reference_HGII ) / $kT ) ) " | bc -l )

> <DESCRIPTOR_DEFINITION_2>
desc1=( echo "1 * ( e( $hartree_to_kcalmol * ( ( $freeEnergyZ - $freeEnergyD ) - ( $freeEnergyX + 2*$G_Ethene - $freeEnergyD - 2*$G_Propene ) - $DDG_reference_HGII ) / $kT ) ) " | bc -l )

> <DESCRIPTOR_DEFINITION_3>
desc1=( echo "1 * ( e( $hartree_to_kcalmol * ( ( $freeEnergyZ - $freeEnergyD ) - ( $freeEnergyX + 2*$G_Ethene - $freeEnergyD - 2*$G_Propene ) - $DDG_reference_HGII ) / $kT ) ) " | bc -l )

> <WEIGHT_DEFINITION_1>
w1=$( echo "1 / ( 1 + e( $hartree_to_kcalmol * ( ( ( $freeEnergyX + 2*$G_Ethene - $freeEnergyD - 2*$G_Propene ) ) - ( $DG_referenceProductionBarrier + $magnitude4 ) ) / $kT ) )" | bc -l )

> <WEIGHT_DEFINITION_2>
w1=$( echo "1 / ( 1 + e( $hartree_to_kcalmol * ( ( ( $freeEnergyX + 2*$G_Ethene - $freeEnergyD - 2*$G_Propene ) ) - ( $DG_referenceProductionBarrier + $magnitude4 ) ) / $kT ) )" | bc -l )

> <WEIGHT_DEFINITION_3>
w1=$( echo "1 / ( 1 + e( $hartree_to_kcalmol * ( ( ( $freeEnergyX + 2*$G_Ethene - $freeEnergyD - 2*$G_Propene ) ) - ( $DG_referenceProductionBarrier + $magnitude4 ) ) / $kT ) )" | bc -l )

> <WEIGHT_DEFINITION_4>
w1=$( echo "1 / ( 1 + e( $hartree_to_kcalmol * ( ( ( $freeEnergyX + 2*$G_Ethene - $freeEnergyD - 2*$G_Propene ) ) - ( $DG_referenceProductionBarrier + $magnitude4 ) ) / $kT ) )" | bc -l )

> <CALCULATION_OF_OVERALL_FITNESS>
fitness=$( echo "( $desc1 + $desc2 + $desc3 ) * ( $w1 * $w2 * $w3 * $w4 )" | bc -l )

> <freeEnergyA>
-3319.79145015

> <freeEnergyF>
-3319.77552052

> <freeEnergyE>
-3319.79145015

> <freeEnergyC>
-2974.53444747

> <freeEnergyL>
-1841.93255394

> <freeEnergyX>
-3053.0692517

> <freeEnergyZ>
-2974.51299306

> <freeEnergyD>
-2974.55762058

> <G_Propene>
-117.738020895

> <G_Ethene>
-78.4716324751

> <G_HoveydaProd>
-502.204109499

> <G_SIMes>
-924.27249048

> <G_HG_RuCl2_SIMes>
-2402.13728523

> <DG_referenceProductionBarrier>
0.01468968

> <DG_referencePrecursorStabilityHII>
-0.0052201621

> <DG_referencePrecursorStabilityHI>
0.0117775312

> <DDG_referencePrecursorStability>
.0169976933

> <DG_referenceSynt>
0.0226072217

> <hartree_to_kcalmol>
627.49467516

> <boltzmann_constant>
0.0000000000000000000000138066

> <avogadro_number>
602214000000000000000000

> <jmol_to_kcalmol>
0.00023901

> <temp>
313.15

> <kT>
.6223089948281258706000000000

> <magnitude1>
1.43290809

> <magnitude2>
2.86581618

> <magnitude3>
4.29872427

> <magnitude4>
5.73163236

> <DFT_IDENTIFIER>
1723592823207

> <DFT_MACHINE>
158.39.114.73

> <XTB_IDENTIFIER>
NREC

> <XTB_MACHINE>
NREC

> <DESCRIPTOR_1>
3.52869615641482621442

> <DESCRIPTOR_2>
14.734704588671023032

> <DESCRIPTOR_3>
.706373893300987800

> <WEIGHT_1>
.99996785922819955945

> <WEIGHT_2>
.99999998554351674219

> <WEIGHT_3>
.99999999517994153520

> <WEIGHT_4>
.99998942743229713379

> <FITNESS>
18.96896401675250271734

$$$$
