
  CDK     08132422123D

 59 63  0  0  0  0  0  0  0  0999 V2000
    0.9347   -0.6109   -2.9598 H   0  0  0  0  0  0  0  0  0  0  0  0
    2.1551   -0.4894   -2.8599 C   0  0  0  0  0  0  0  0  0  0  0  0
    2.1928   -0.4754   -3.9722 H   0  0  0  0  0  0  0  0  0  0  0  0
    2.2376    0.7445   -2.0237 C   0  0  0  0  0  0  0  0  0  0  0  0
    3.1257    0.8698   -1.3824 H   0  0  0  0  0  0  0  0  0  0  0  0
    1.8468    1.6731   -2.4746 H   0  0  0  0  0  0  0  0  0  0  0  0
    0.8211   -0.5007   -1.1931 Ru  0  0  0  0  0  0  0  0  0  0  0  0
    2.3943   -1.7018   -2.0709 C   0  0  0  0  0  0  0  0  0  0  0  0
    3.2514   -1.7451   -1.3885 H   0  0  0  0  0  0  0  0  0  0  0  0
    2.0711   -2.6625   -2.5073 H   0  0  0  0  0  0  0  0  0  0  0  0
    2.3327   -0.8400    0.6836 Cl  0  0  0  0  0  0  0  0  0  0  0  0
   -1.0184    0.2399   -2.5411 Cl  0  0  0  0  0  0  0  0  0  0  0  0
   -0.6619    1.3742    0.7931 N   0  0  0  0  0  0  0  0  0  0  0  0
   -0.3028    0.0969    0.4356 C   0  0  0  0  0  0  0  0  0  0  0  0
   -0.9129   -0.7209    1.3563 N   0  0  0  0  0  0  0  0  0  0  0  0
   -1.6390    0.0344    2.2811 C   0  0  0  0  0  0  0  0  0  0  0  0
   -1.4769    1.3519    1.9304 C   0  0  0  0  0  0  0  0  0  0  0  0
   -2.5622   -0.6578    3.5394 Cl  0  0  0  0  0  0  0  0  0  0  0  0
   -2.0728    2.7637    2.6833 Cl  0  0  0  0  0  0  0  0  0  0  0  0
   -1.2935    3.1428   -0.7830 C   0  0  0  0  0  0  0  0  0  0  0  0
   -0.3211    2.5731    0.0650 C   0  0  0  0  0  0  0  0  0  0  0  0
    0.9526    3.1463    0.2607 C   0  0  0  0  0  0  0  0  0  0  0  0
    1.2728    4.2795   -0.5063 C   0  0  0  0  0  0  0  0  0  0  0  0
    0.3620    4.8468   -1.4153 C   0  0  0  0  0  0  0  0  0  0  0  0
   -0.9187    4.2780   -1.5214 C   0  0  0  0  0  0  0  0  0  0  0  0
    2.2651    4.7382   -0.3750 H   0  0  0  0  0  0  0  0  0  0  0  0
   -1.6569    4.7281   -2.2029 H   0  0  0  0  0  0  0  0  0  0  0  0
   -2.6957    2.6012   -0.8638 C   0  0  0  0  0  0  0  0  0  0  0  0
   -3.1932    2.9446   -1.7897 H   0  0  0  0  0  0  0  0  0  0  0  0
   -3.3008    2.9542   -0.0017 H   0  0  0  0  0  0  0  0  0  0  0  0
   -2.7064    1.4956   -0.8648 H   0  0  0  0  0  0  0  0  0  0  0  0
    1.9114    2.5975    1.2789 C   0  0  0  0  0  0  0  0  0  0  0  0
    1.4469    2.5781    2.2873 H   0  0  0  0  0  0  0  0  0  0  0  0
    2.8222    3.2223    1.3353 H   0  0  0  0  0  0  0  0  0  0  0  0
    2.2081    1.5524    1.0493 H   0  0  0  0  0  0  0  0  0  0  0  0
    0.7533    6.0319   -2.2617 C   0  0  0  0  0  0  0  0  0  0  0  0
   -0.1212    6.6657   -2.5066 H   0  0  0  0  0  0  0  0  0  0  0  0
    1.1957    5.6986   -3.2250 H   0  0  0  0  0  0  0  0  0  0  0  0
    1.5101    6.6627   -1.7557 H   0  0  0  0  0  0  0  0  0  0  0  0
   -0.8108   -2.1595    1.3543 C   0  0  0  0  0  0  0  0  0  0  0  0
    0.0291   -2.7880    2.2998 C   0  0  0  0  0  0  0  0  0  0  0  0
    0.1496   -4.1845    2.2223 C   0  0  0  0  0  0  0  0  0  0  0  0
   -0.5439   -4.9438    1.2629 C   0  0  0  0  0  0  0  0  0  0  0  0
   -1.4171   -4.2777    0.3867 C   0  0  0  0  0  0  0  0  0  0  0  0
   -1.5820   -2.8814    0.4179 C   0  0  0  0  0  0  0  0  0  0  0  0
    0.8127   -4.6934    2.9388 H   0  0  0  0  0  0  0  0  0  0  0  0
   -2.0060   -4.8602   -0.3384 H   0  0  0  0  0  0  0  0  0  0  0  0
    0.7320   -2.0155    3.3833 C   0  0  0  0  0  0  0  0  0  0  0  0
    0.0455   -1.8291    4.2364 H   0  0  0  0  0  0  0  0  0  0  0  0
    1.1023   -1.0430    3.0109 H   0  0  0  0  0  0  0  0  0  0  0  0
    1.5995   -2.5851    3.7653 H   0  0  0  0  0  0  0  0  0  0  0  0
   -0.3500   -6.4366    1.1792 C   0  0  0  0  0  0  0  0  0  0  0  0
   -0.2609   -6.8927    2.1851 H   0  0  0  0  0  0  0  0  0  0  0  0
    0.5835   -6.6809    0.6287 H   0  0  0  0  0  0  0  0  0  0  0  0
   -1.1867   -6.9285    0.6469 H   0  0  0  0  0  0  0  0  0  0  0  0
   -2.5853   -2.2027   -0.4761 C   0  0  0  0  0  0  0  0  0  0  0  0
   -3.2482   -2.9508   -0.9492 H   0  0  0  0  0  0  0  0  0  0  0  0
   -2.1066   -1.6094   -1.2830 H   0  0  0  0  0  0  0  0  0  0  0  0
   -3.2185   -1.4954    0.0981 H   0  0  0  0  0  0  0  0  0  0  0  0
  1  2  1  0  0  0  0
  1  7  1  0  0  0  0
  2  3  1  0  0  0  0
  2  4  1  0  0  0  0
  4  5  1  0  0  0  0
  6  4  1  0  0  0  0
  7  8  1  0  0  0  0
  7  4  1  0  0  0  0
  8  2  1  0  0  0  0
  8  9  1  0  0  0  0
 10  8  1  0  0  0  0
  7 11  1  0  0  0  0
  7 12  1  0  0  0  0
 13 14  1  0  0  0  0
 13 17  1  0  0  0  0
 14 15  1  0  0  0  0
 15 16  1  0  0  0  0
 16 17  2  0  0  0  0
 16 18  1  0  0  0  0
 17 19  1  0  0  0  0
 20 21  2  0  0  0  0
 20 25  1  0  0  0  0
 21 22  1  0  0  0  0
 22 23  2  0  0  0  0
 23 24  1  0  0  0  0
 23 26  1  0  0  0  0
 24 25  2  0  0  0  0
 25 27  1  0  0  0  0
 13 21  1  0  0  0  0
 28 29  1  0  0  0  0
 28 30  1  0  0  0  0
 28 31  1  0  0  0  0
 20 28  1  0  0  0  0
 32 33  1  0  0  0  0
 32 34  1  0  0  0  0
 32 35  1  0  0  0  0
 22 32  1  0  0  0  0
 36 37  1  0  0  0  0
 36 38  1  0  0  0  0
 36 39  1  0  0  0  0
 24 36  1  0  0  0  0
 40 41  2  0  0  0  0
 40 45  1  0  0  0  0
 41 42  1  0  0  0  0
 42 43  2  0  0  0  0
 42 46  1  0  0  0  0
 43 44  1  0  0  0  0
 44 45  2  0  0  0  0
 44 47  1  0  0  0  0
 15 40  1  0  0  0  0
 48 49  1  0  0  0  0
 48 50  1  0  0  0  0
 48 51  1  0  0  0  0
 41 48  1  0  0  0  0
 52 53  1  0  0  0  0
 52 54  1  0  0  0  0
 52 55  1  0  0  0  0
 43 52  1  0  0  0  0
 56 57  1  0  0  0  0
 56 58  1  0  0  0  0
 56 59  1  0  0  0  0
 45 56  1  0  0  0  0
  7 14  1  0  0  0  0
M  END
>  <DFT-ENERGY>
-2974.51299303

$$$$
