
  CDK     08132418393D

 65 68  0  0  0  0  0  0  0  0999 V2000
   -0.2245   -2.7633   -1.7277 C   0  0  0  0  0  0  0  0  0  0  0  0
    0.8095   -2.7572   -2.1152 H   0  0  0  0  0  0  0  0  0  0  0  0
   -0.7919   -3.6053   -2.1837 H   0  0  0  0  0  0  0  0  0  0  0  0
   -0.7267   -1.8318   -2.0657 H   0  0  0  0  0  0  0  0  0  0  0  0
   -0.2750   -2.9046   -0.2246 C   0  0  0  0  0  0  0  0  0  0  0  0
   -1.2868   -3.0086    0.2089 H   0  0  0  0  0  0  0  0  0  0  0  0
    0.7804   -3.4184    0.5758 C   0  0  0  0  0  0  0  0  0  0  0  0
    1.7568   -3.5682    0.0829 H   0  0  0  0  0  0  0  0  0  0  0  0
    0.4598   -4.2712    1.7832 C   0  0  0  0  0  0  0  0  0  0  0  0
    1.3186   -4.3809    2.4721 H   0  0  0  0  0  0  0  0  0  0  0  0
    0.1830   -5.2881    1.4304 H   0  0  0  0  0  0  0  0  0  0  0  0
   -0.4033   -3.8552    2.3391 H   0  0  0  0  0  0  0  0  0  0  0  0
    1.5647   -1.6948    1.9173 C   0  0  0  0  0  0  0  0  0  0  0  0
    1.1293   -1.9190    2.9145 H   0  0  0  0  0  0  0  0  0  0  0  0
    2.6594   -1.8401    1.7856 H   0  0  0  0  0  0  0  0  0  0  0  0
    0.5366   -1.0527    0.5502 Ru  0  0  0  0  0  0  0  0  0  0  0  0
   -1.3843   -1.1330    2.0030 Cl  0  0  0  0  0  0  0  0  0  0  0  0
    2.4757   -1.0736   -0.8756 Cl  0  0  0  0  0  0  0  0  0  0  0  0
   -0.1511    1.7409   -0.3856 N   0  0  0  0  0  0  0  0  0  0  0  0
    0.4782    0.9633    0.5555 C   0  0  0  0  0  0  0  0  0  0  0  0
    1.0104    1.8494    1.4619 N   0  0  0  0  0  0  0  0  0  0  0  0
    0.7166    3.1669    1.0829 C   0  0  0  0  0  0  0  0  0  0  0  0
   -0.0178    3.0987   -0.0737 C   0  0  0  0  0  0  0  0  0  0  0  0
    1.2392    4.5255    1.9752 Cl  0  0  0  0  0  0  0  0  0  0  0  0
   -0.6974    4.3384   -1.0313 Cl  0  0  0  0  0  0  0  0  0  0  0  0
   -2.1787    0.8346   -1.4291 C   0  0  0  0  0  0  0  0  0  0  0  0
   -0.8171    1.1923   -1.5400 C   0  0  0  0  0  0  0  0  0  0  0  0
   -0.0839    1.0651   -2.7411 C   0  0  0  0  0  0  0  0  0  0  0  0
   -0.7367    0.4669   -3.8313 C   0  0  0  0  0  0  0  0  0  0  0  0
   -2.0711    0.0265   -3.7499 C   0  0  0  0  0  0  0  0  0  0  0  0
   -2.7780    0.2367   -2.5526 C   0  0  0  0  0  0  0  0  0  0  0  0
   -0.1821    0.3460   -4.7744 H   0  0  0  0  0  0  0  0  0  0  0  0
   -3.8361   -0.0597   -2.4884 H   0  0  0  0  0  0  0  0  0  0  0  0
   -2.9603    1.1078   -0.1752 C   0  0  0  0  0  0  0  0  0  0  0  0
   -4.0359    0.9075   -0.3352 H   0  0  0  0  0  0  0  0  0  0  0  0
   -2.8481    2.1644    0.1434 H   0  0  0  0  0  0  0  0  0  0  0  0
   -2.6064    0.4692    0.6634 H   0  0  0  0  0  0  0  0  0  0  0  0
    1.3322    1.5565   -2.8451 C   0  0  0  0  0  0  0  0  0  0  0  0
    1.6978    1.4769   -3.8855 H   0  0  0  0  0  0  0  0  0  0  0  0
    1.9972    0.9492   -2.1944 H   0  0  0  0  0  0  0  0  0  0  0  0
    1.4167    2.6158   -2.5280 H   0  0  0  0  0  0  0  0  0  0  0  0
   -2.7230   -0.6642   -4.9206 C   0  0  0  0  0  0  0  0  0  0  0  0
   -2.4773   -1.7478   -4.9214 H   0  0  0  0  0  0  0  0  0  0  0  0
   -2.3702   -0.2510   -5.8859 H   0  0  0  0  0  0  0  0  0  0  0  0
   -3.8260   -0.5768   -4.8849 H   0  0  0  0  0  0  0  0  0  0  0  0
    1.7616    1.4789    2.6335 C   0  0  0  0  0  0  0  0  0  0  0  0
    1.0760    1.3507    3.8606 C   0  0  0  0  0  0  0  0  0  0  0  0
    1.8252    0.9380    4.9742 C   0  0  0  0  0  0  0  0  0  0  0  0
    3.2053    0.6737    4.8870 C   0  0  0  0  0  0  0  0  0  0  0  0
    3.8492    0.8602    3.6519 C   0  0  0  0  0  0  0  0  0  0  0  0
    3.1498    1.2734    2.5031 C   0  0  0  0  0  0  0  0  0  0  0  0
    1.3107    0.8243    5.9409 H   0  0  0  0  0  0  0  0  0  0  0  0
    4.9337    0.6877    3.5746 H   0  0  0  0  0  0  0  0  0  0  0  0
   -0.3953    1.6396    3.9621 C   0  0  0  0  0  0  0  0  0  0  0  0
   -0.7408    1.5527    5.0088 H   0  0  0  0  0  0  0  0  0  0  0  0
   -0.9723    0.9211    3.3409 H   0  0  0  0  0  0  0  0  0  0  0  0
   -0.6323    2.6628    3.6046 H   0  0  0  0  0  0  0  0  0  0  0  0
    3.9696    0.2030    6.0990 C   0  0  0  0  0  0  0  0  0  0  0  0
    3.6926   -0.8398    6.3620 H   0  0  0  0  0  0  0  0  0  0  0  0
    3.7451    0.8282    6.9867 H   0  0  0  0  0  0  0  0  0  0  0  0
    5.0626    0.2264    5.9275 H   0  0  0  0  0  0  0  0  0  0  0  0
    3.8490    1.4835    1.1897 C   0  0  0  0  0  0  0  0  0  0  0  0
    3.5414    0.7138    0.4474 H   0  0  0  0  0  0  0  0  0  0  0  0
    4.9462    1.4271    1.3158 H   0  0  0  0  0  0  0  0  0  0  0  0
    3.6014    2.4733    0.7543 H   0  0  0  0  0  0  0  0  0  0  0  0
  1  2  1  0  0  0  0
  1  5  1  0  0  0  0
  1  3  1  0  0  0  0
  1  4  1  0  0  0  0
  5  6  1  0  0  0  0
  5 16  1  0  0  0  0
  5  7  1  0  0  0  0
  7  9  1  0  0  0  0
  7  8  1  0  0  0  0
  9 10  1  0  0  0  0
  9 11  1  0  0  0  0
  9 12  1  0  0  0  0
 13 14  1  0  0  0  0
 13 15  1  0  0  0  0
  7 13  1  0  0  0  0
 13 16  1  0  0  0  0
 16 17  1  0  0  0  0
 16 18  1  0  0  0  0
 19 20  1  0  0  0  0
 19 23  1  0  0  0  0
 20 21  1  0  0  0  0
 21 22  1  0  0  0  0
 22 23  2  0  0  0  0
 22 24  1  0  0  0  0
 23 25  1  0  0  0  0
 26 27  2  0  0  0  0
 26 31  1  0  0  0  0
 27 28  1  0  0  0  0
 28 29  2  0  0  0  0
 29 30  1  0  0  0  0
 29 32  1  0  0  0  0
 30 31  2  0  0  0  0
 31 33  1  0  0  0  0
 19 27  1  0  0  0  0
 34 35  1  0  0  0  0
 34 36  1  0  0  0  0
 34 37  1  0  0  0  0
 26 34  1  0  0  0  0
 38 39  1  0  0  0  0
 38 40  1  0  0  0  0
 38 41  1  0  0  0  0
 28 38  1  0  0  0  0
 42 43  1  0  0  0  0
 42 44  1  0  0  0  0
 42 45  1  0  0  0  0
 30 42  1  0  0  0  0
 46 47  2  0  0  0  0
 46 51  1  0  0  0  0
 47 48  1  0  0  0  0
 48 49  2  0  0  0  0
 48 52  1  0  0  0  0
 49 50  1  0  0  0  0
 50 51  2  0  0  0  0
 50 53  1  0  0  0  0
 21 46  1  0  0  0  0
 54 55  1  0  0  0  0
 54 56  1  0  0  0  0
 54 57  1  0  0  0  0
 47 54  1  0  0  0  0
 58 59  1  0  0  0  0
 58 60  1  0  0  0  0
 58 61  1  0  0  0  0
 49 58  1  0  0  0  0
 62 63  1  0  0  0  0
 62 64  1  0  0  0  0
 62 65  1  0  0  0  0
 51 62  1  0  0  0  0
 16 20  1  0  0  0  0
M  END
>  <DFT-ENERGY>
-3053.06925218

$$$$
