
  CDK     08132422573D

 59 63  0  0  0  0  0  0  0  0999 V2000
    0.9694   -0.6118   -2.9565 H   0  0  0  0  0  0  0  0  0  0  0  0
    2.1889   -0.4899   -2.8469 C   0  0  0  0  0  0  0  0  0  0  0  0
    2.2354   -0.4755   -3.9589 H   0  0  0  0  0  0  0  0  0  0  0  0
    2.2640    0.7437   -2.0097 C   0  0  0  0  0  0  0  0  0  0  0  0
    3.1469    0.8693   -1.3612 H   0  0  0  0  0  0  0  0  0  0  0  0
    1.8763    1.6722   -2.4634 H   0  0  0  0  0  0  0  0  0  0  0  0
    0.8418   -0.5027   -1.1907 Ru  0  0  0  0  0  0  0  0  0  0  0  0
    2.4222   -1.7027   -2.0565 C   0  0  0  0  0  0  0  0  0  0  0  0
    3.2740   -1.7461   -1.3676 H   0  0  0  0  0  0  0  0  0  0  0  0
    2.1027   -2.6632   -2.4959 H   0  0  0  0  0  0  0  0  0  0  0  0
    2.3397   -0.8406    0.6973 Cl  0  0  0  0  0  0  0  0  0  0  0  0
   -0.9880    0.2358   -2.5530 Cl  0  0  0  0  0  0  0  0  0  0  0  0
   -0.6594    1.3686    0.7850 N   0  0  0  0  0  0  0  0  0  0  0  0
   -0.2955    0.0921    0.4297 C   0  0  0  0  0  0  0  0  0  0  0  0
   -0.9112   -0.7272    1.3453 N   0  0  0  0  0  0  0  0  0  0  0  0
   -1.6456    0.0265    2.2649 C   0  0  0  0  0  0  0  0  0  0  0  0
   -1.4830    1.3445    1.9160 C   0  0  0  0  0  0  0  0  0  0  0  0
   -2.5774   -0.6677    3.5157 Cl  0  0  0  0  0  0  0  0  0  0  0  0
   -2.0868    2.7549    2.6652 Cl  0  0  0  0  0  0  0  0  0  0  0  0
   -1.2825    3.1369   -0.7951 C   0  0  0  0  0  0  0  0  0  0  0  0
   -0.3153    2.5684    0.0598 C   0  0  0  0  0  0  0  0  0  0  0  0
    0.9560    3.1436    0.2649 C   0  0  0  0  0  0  0  0  0  0  0  0
    1.2799    4.2776   -0.4994 C   0  0  0  0  0  0  0  0  0  0  0  0
    0.3747    4.8438   -1.4147 C   0  0  0  0  0  0  0  0  0  0  0  0
   -0.9043    4.2729   -1.5303 C   0  0  0  0  0  0  0  0  0  0  0  0
    2.2704    4.7379   -0.3608 H   0  0  0  0  0  0  0  0  0  0  0  0
   -1.6383    4.7221   -2.2168 H   0  0  0  0  0  0  0  0  0  0  0  0
   -2.6831    2.5926   -0.8863 C   0  0  0  0  0  0  0  0  0  0  0  0
   -3.1749    2.9368   -1.8150 H   0  0  0  0  0  0  0  0  0  0  0  0
   -3.2947    2.9428   -0.0277 H   0  0  0  0  0  0  0  0  0  0  0  0
   -2.6915    1.4870   -0.8895 H   0  0  0  0  0  0  0  0  0  0  0  0
    1.9084    2.5960    1.2897 C   0  0  0  0  0  0  0  0  0  0  0  0
    2.8176    3.2224    1.3530 H   0  0  0  0  0  0  0  0  0  0  0  0
    2.2086    1.5515    1.0618 H   0  0  0  0  0  0  0  0  0  0  0  0
    1.4367    2.5752    2.2947 H   0  0  0  0  0  0  0  0  0  0  0  0
    0.7700    6.0298   -2.2579 C   0  0  0  0  0  0  0  0  0  0  0  0
   -0.1029    6.6656   -2.5035 H   0  0  0  0  0  0  0  0  0  0  0  0
    1.2137    5.6975   -3.2210 H   0  0  0  0  0  0  0  0  0  0  0  0
    1.5268    6.6582   -1.7491 H   0  0  0  0  0  0  0  0  0  0  0  0
   -0.8066   -2.1656    1.3436 C   0  0  0  0  0  0  0  0  0  0  0  0
   -1.5691   -2.8885    0.4009 C   0  0  0  0  0  0  0  0  0  0  0  0
   -1.4018   -4.2846    0.3708 C   0  0  0  0  0  0  0  0  0  0  0  0
   -0.5348   -4.9494    1.2540 C   0  0  0  0  0  0  0  0  0  0  0  0
    0.1499   -4.1892    2.2190 C   0  0  0  0  0  0  0  0  0  0  0  0
    0.0267   -2.7929    2.2957 C   0  0  0  0  0  0  0  0  0  0  0  0
   -1.9840   -4.8678   -0.3592 H   0  0  0  0  0  0  0  0  0  0  0  0
    0.8079   -4.6972    2.9407 H   0  0  0  0  0  0  0  0  0  0  0  0
   -2.5660   -2.2111   -0.5014 C   0  0  0  0  0  0  0  0  0  0  0  0
   -3.2242   -2.9601   -0.9797 H   0  0  0  0  0  0  0  0  0  0  0  0
   -2.0815   -1.6174   -1.3045 H   0  0  0  0  0  0  0  0  0  0  0  0
   -3.2046   -1.5045    0.0676 H   0  0  0  0  0  0  0  0  0  0  0  0
   -0.3379   -6.4419    1.1716 C   0  0  0  0  0  0  0  0  0  0  0  0
   -1.1711   -6.9353    0.6350 H   0  0  0  0  0  0  0  0  0  0  0  0
   -0.2533   -6.8978    2.1779 H   0  0  0  0  0  0  0  0  0  0  0  0
    0.5987   -6.6848    0.6258 H   0  0  0  0  0  0  0  0  0  0  0  0
    0.7199   -2.0194    3.3847 C   0  0  0  0  0  0  0  0  0  0  0  0
    0.0262   -1.8328    4.2319 H   0  0  0  0  0  0  0  0  0  0  0  0
    1.0929   -1.0470    3.0148 H   0  0  0  0  0  0  0  0  0  0  0  0
    1.5845   -2.5884    3.7743 H   0  0  0  0  0  0  0  0  0  0  0  0
  1  2  1  0  0  0  0
  1  7  1  0  0  0  0
  2  3  1  0  0  0  0
  2  4  1  0  0  0  0
  4  5  1  0  0  0  0
  6  4  1  0  0  0  0
  7  8  1  0  0  0  0
  7  4  1  0  0  0  0
  8  2  1  0  0  0  0
  8  9  1  0  0  0  0
 10  8  1  0  0  0  0
  7 11  1  0  0  0  0
  7 12  1  0  0  0  0
 13 14  1  0  0  0  0
 13 17  1  0  0  0  0
 14 15  1  0  0  0  0
 15 16  1  0  0  0  0
 16 17  2  0  0  0  0
 16 18  1  0  0  0  0
 17 19  1  0  0  0  0
 20 21  2  0  0  0  0
 20 25  1  0  0  0  0
 21 22  1  0  0  0  0
 22 23  2  0  0  0  0
 23 24  1  0  0  0  0
 23 26  1  0  0  0  0
 24 25  2  0  0  0  0
 25 27  1  0  0  0  0
 13 21  1  0  0  0  0
 28 29  1  0  0  0  0
 28 30  1  0  0  0  0
 28 31  1  0  0  0  0
 20 28  1  0  0  0  0
 32 33  1  0  0  0  0
 32 34  1  0  0  0  0
 32 35  1  0  0  0  0
 22 32  1  0  0  0  0
 36 37  1  0  0  0  0
 36 38  1  0  0  0  0
 36 39  1  0  0  0  0
 24 36  1  0  0  0  0
 40 41  2  0  0  0  0
 40 45  1  0  0  0  0
 41 42  1  0  0  0  0
 42 43  2  0  0  0  0
 42 46  1  0  0  0  0
 43 44  1  0  0  0  0
 44 45  2  0  0  0  0
 44 47  1  0  0  0  0
 15 40  1  0  0  0  0
 48 49  1  0  0  0  0
 48 50  1  0  0  0  0
 48 51  1  0  0  0  0
 41 48  1  0  0  0  0
 52 53  1  0  0  0  0
 52 54  1  0  0  0  0
 52 55  1  0  0  0  0
 43 52  1  0  0  0  0
 56 57  1  0  0  0  0
 56 58  1  0  0  0  0
 56 59  1  0  0  0  0
 45 56  1  0  0  0  0
  7 14  1  0  0  0  0
M  END
>  <DFT-ENERGY>
-2974.51299399

$$$$
