DClIMes-5_A1
  CDK     08132410503D

 73 77  0  0  0  0  0  0  0  0999 V2000
    0.6804   -0.2866   -0.0605 Ru  0  0  0  0  0  0  0  0  0  0  0  0
    2.4582   -0.2866   -1.4497 O   0  0  0  0  0  0  0  0  0  0  0  0
    1.8906   -1.2199    0.9436 C   0  0  0  0  0  0  0  0  0  0  0  0
    1.6578   -1.5128    1.9663 H   0  0  0  0  0  0  0  0  0  0  0  0
    2.6937    0.4886   -2.6755 C   0  0  0  0  0  0  0  0  0  0  0  0
    3.1027   -0.2115   -3.4344 H   0  0  0  0  0  0  0  0  0  0  0  0
    1.2702    0.9275   -2.9886 C   0  0  0  0  0  0  0  0  0  0  0  0
    1.1954    1.4229   -3.9597 H   0  0  0  0  0  0  0  0  0  0  0  0
    0.8850    1.6267   -2.2181 H   0  0  0  0  0  0  0  0  0  0  0  0
    0.5830    0.0553   -2.9917 H   0  0  0  0  0  0  0  0  0  0  0  0
    3.6314    1.6344   -2.3419 C   0  0  0  0  0  0  0  0  0  0  0  0
    3.6246    2.4061   -3.1184 H   0  0  0  0  0  0  0  0  0  0  0  0
    4.6656    1.3070   -2.1933 H   0  0  0  0  0  0  0  0  0  0  0  0
    3.3129    2.1195   -1.3976 H   0  0  0  0  0  0  0  0  0  0  0  0
    3.4504   -1.0850   -0.9447 C   0  0  0  0  0  0  0  0  0  0  0  0
    4.6195   -1.4337   -1.5977 C   0  0  0  0  0  0  0  0  0  0  0  0
    4.8384   -1.0836   -2.6039 H   0  0  0  0  0  0  0  0  0  0  0  0
    5.5207   -2.2648   -0.9402 C   0  0  0  0  0  0  0  0  0  0  0  0
    6.4433   -2.5526   -1.4492 H   0  0  0  0  0  0  0  0  0  0  0  0
    5.2707   -2.7364    0.3451 C   0  0  0  0  0  0  0  0  0  0  0  0
    5.9954   -3.3813    0.8393 H   0  0  0  0  0  0  0  0  0  0  0  0
    4.1010   -2.3761    0.9867 C   0  0  0  0  0  0  0  0  0  0  0  0
    3.9078   -2.7307    1.9980 H   0  0  0  0  0  0  0  0  0  0  0  0
    3.1655   -1.5607    0.3473 C   0  0  0  0  0  0  0  0  0  0  0  0
    1.2847    1.9223    0.5041 Cl  0  0  0  0  0  0  0  0  0  0  0  0
   -0.1594   -2.0271   -1.4472 Cl  0  0  0  0  0  0  0  0  0  0  0  0
   -1.2253   -0.6905    2.3626 N   0  0  0  0  0  0  0  0  0  0  0  0
   -0.9081   -0.2251    1.0717 C   0  0  0  0  0  0  0  0  0  0  0  0
   -2.1016    0.4211    0.6443 N   0  0  0  0  0  0  0  0  0  0  0  0
   -3.1040    0.3502    1.6548 C   0  0  0  0  0  0  0  0  0  0  0  0
   -2.5641   -0.3345    2.7179 C   0  0  0  0  0  0  0  0  0  0  0  0
   -4.6316    1.0207    1.4624 Cl  0  0  0  0  0  0  0  0  0  0  0  0
   -3.2345   -0.7386    4.2033 Cl  0  0  0  0  0  0  0  0  0  0  0  0
    0.2837   -0.7426    4.3145 C   0  0  0  0  0  0  0  0  0  0  0  0
   -0.4015   -1.4324    3.2853 C   0  0  0  0  0  0  0  0  0  0  0  0
   -0.3232   -2.8407    3.1683 C   0  0  0  0  0  0  0  0  0  0  0  0
    0.3978   -3.5543    4.1332 C   0  0  0  0  0  0  0  0  0  0  0  0
    1.0424   -2.8879    5.1851 C   0  0  0  0  0  0  0  0  0  0  0  0
    0.9949   -1.4871    5.2612 C   0  0  0  0  0  0  0  0  0  0  0  0
    0.4552   -4.6388    4.0628 H   0  0  0  0  0  0  0  0  0  0  0  0
    1.5167   -0.9730    6.0660 H   0  0  0  0  0  0  0  0  0  0  0  0
    0.2619    0.7465    4.3668 C   0  0  0  0  0  0  0  0  0  0  0  0
    0.9071    1.1600    5.1520 H   0  0  0  0  0  0  0  0  0  0  0  0
   -0.7551    1.1298    4.5422 H   0  0  0  0  0  0  0  0  0  0  0  0
    0.6070    1.1817    3.4070 H   0  0  0  0  0  0  0  0  0  0  0  0
   -0.9646   -3.5369    2.0183 C   0  0  0  0  0  0  0  0  0  0  0  0
   -0.7563   -4.6139    1.9927 H   0  0  0  0  0  0  0  0  0  0  0  0
   -0.6042   -3.1220    1.0508 H   0  0  0  0  0  0  0  0  0  0  0  0
   -2.0579   -3.4153    2.0239 H   0  0  0  0  0  0  0  0  0  0  0  0
    1.7859   -3.6582    6.2262 C   0  0  0  0  0  0  0  0  0  0  0  0
    2.8083   -3.2763    6.3607 H   0  0  0  0  0  0  0  0  0  0  0  0
    1.8704   -4.7271    5.9895 H   0  0  0  0  0  0  0  0  0  0  0  0
    1.2832   -3.5838    7.2026 H   0  0  0  0  0  0  0  0  0  0  0  0
   -2.3541    1.0811   -0.6161 C   0  0  0  0  0  0  0  0  0  0  0  0
   -2.1277    2.4743   -0.7352 C   0  0  0  0  0  0  0  0  0  0  0  0
   -2.4356    3.1080   -1.9476 C   0  0  0  0  0  0  0  0  0  0  0  0
   -2.9706    2.3869   -3.0222 C   0  0  0  0  0  0  0  0  0  0  0  0
   -3.2033    1.0110   -2.8876 C   0  0  0  0  0  0  0  0  0  0  0  0
   -2.9075    0.3425   -1.6927 C   0  0  0  0  0  0  0  0  0  0  0  0
   -2.2580    4.1770   -2.0465 H   0  0  0  0  0  0  0  0  0  0  0  0
   -3.6225    0.4500   -3.7208 H   0  0  0  0  0  0  0  0  0  0  0  0
   -1.5874    3.2958    0.3847 C   0  0  0  0  0  0  0  0  0  0  0  0
   -0.6920    3.8593    0.0675 H   0  0  0  0  0  0  0  0  0  0  0  0
   -1.2554    2.7031    1.2509 H   0  0  0  0  0  0  0  0  0  0  0  0
   -2.3291    4.0216    0.7442 H   0  0  0  0  0  0  0  0  0  0  0  0
   -3.3076    3.0737   -4.3053 C   0  0  0  0  0  0  0  0  0  0  0  0
   -2.9279    4.1028   -4.3513 H   0  0  0  0  0  0  0  0  0  0  0  0
   -4.3977    3.1250   -4.4473 H   0  0  0  0  0  0  0  0  0  0  0  0
   -2.8948    2.5382   -5.1722 H   0  0  0  0  0  0  0  0  0  0  0  0
   -3.2008   -1.1152   -1.5932 C   0  0  0  0  0  0  0  0  0  0  0  0
   -2.7766   -1.5928   -0.6966 H   0  0  0  0  0  0  0  0  0  0  0  0
   -2.7605   -1.6684   -2.4419 H   0  0  0  0  0  0  0  0  0  0  0  0
   -4.2821   -1.3072   -1.5930 H   0  0  0  0  0  0  0  0  0  0  0  0
  1  2  1  0  0  0  0
  1  3  2  0  0  0  0
  3  4  1  0  0  0  0
  2  5  1  0  0  0  0
  5  6  1  0  0  0  0
  5  7  1  0  0  0  0
  7  8  1  0  0  0  0
  7  9  1  0  0  0  0
  7 10  1  0  0  0  0
  5 11  1  0  0  0  0
 11 12  1  0  0  0  0
 11 13  1  0  0  0  0
 11 14  1  0  0  0  0
  2 15  1  0  0  0  0
 15 24  1  0  0  0  0
 15 16  2  0  0  0  0
 16 17  1  0  0  0  0
 16 18  1  0  0  0  0
 18 19  1  0  0  0  0
 18 20  2  0  0  0  0
 20 21  1  0  0  0  0
 20 22  1  0  0  0  0
 22 24  2  0  0  0  0
 22 23  1  0  0  0  0
  3 24  1  0  0  0  0
  1 25  1  0  0  0  0
  1 26  1  0  0  0  0
 27 28  1  0  0  0  0
 27 31  1  0  0  0  0
 28 29  1  0  0  0  0
 29 30  1  0  0  0  0
 30 31  2  0  0  0  0
 30 32  1  0  0  0  0
 31 33  1  0  0  0  0
  1 28  1  0  0  0  0
 34 35  2  0  0  0  0
 34 39  1  0  0  0  0
 35 36  1  0  0  0  0
 36 37  2  0  0  0  0
 37 38  1  0  0  0  0
 37 40  1  0  0  0  0
 38 39  2  0  0  0  0
 39 41  1  0  0  0  0
 27 35  1  0  0  0  0
 42 43  1  0  0  0  0
 42 44  1  0  0  0  0
 42 45  1  0  0  0  0
 34 42  1  0  0  0  0
 46 47  1  0  0  0  0
 46 48  1  0  0  0  0
 46 49  1  0  0  0  0
 36 46  1  0  0  0  0
 50 51  1  0  0  0  0
 50 52  1  0  0  0  0
 50 53  1  0  0  0  0
 38 50  1  0  0  0  0
 54 55  2  0  0  0  0
 54 59  1  0  0  0  0
 55 56  1  0  0  0  0
 56 57  2  0  0  0  0
 56 60  1  0  0  0  0
 57 58  1  0  0  0  0
 58 59  2  0  0  0  0
 58 61  1  0  0  0  0
 29 54  1  0  0  0  0
 62 63  1  0  0  0  0
 62 64  1  0  0  0  0
 62 65  1  0  0  0  0
 55 62  1  0  0  0  0
 66 67  1  0  0  0  0
 66 68  1  0  0  0  0
 66 69  1  0  0  0  0
 57 66  1  0  0  0  0
 70 71  1  0  0  0  0
 70 72  1  0  0  0  0
 70 73  1  0  0  0  0
 59 70  1  0  0  0  0
M  END
> <FrozenCore-PM6_ENERGY>
39.940

> <RMSD_CONF_CG-CS>
0.519028

> <RMSD_CONF_GO-CS>
0.000000

> <UID>


> <DESCRIPTOR_DEFINITION_1>
desc1=( echo "1 * ( e( $hartree_to_kcalmol * ( ( $freeEnergyZ - $freeEnergyD ) - ( $freeEnergyX + 2*$G_Ethene - $freeEnergyD - 2*$G_Propene ) - $DDG_reference_HGII ) / $kT ) ) " | bc -l )

> <DESCRIPTOR_DEFINITION_2>
desc1=( echo "1 * ( e( $hartree_to_kcalmol * ( ( $freeEnergyZ - $freeEnergyD ) - ( $freeEnergyX + 2*$G_Ethene - $freeEnergyD - 2*$G_Propene ) - $DDG_reference_HGII ) / $kT ) ) " | bc -l )

> <DESCRIPTOR_DEFINITION_3>
desc1=( echo "1 * ( e( $hartree_to_kcalmol * ( ( $freeEnergyZ - $freeEnergyD ) - ( $freeEnergyX + 2*$G_Ethene - $freeEnergyD - 2*$G_Propene ) - $DDG_reference_HGII ) / $kT ) ) " | bc -l )

> <WEIGHT_DEFINITION_1>
w1=$( echo "1 / ( 1 + e( $hartree_to_kcalmol * ( ( ( $freeEnergyX + 2*$G_Ethene - $freeEnergyD - 2*$G_Propene ) ) - ( $DG_referenceProductionBarrier + $magnitude4 ) ) / $kT ) )" | bc -l )

> <WEIGHT_DEFINITION_2>
w1=$( echo "1 / ( 1 + e( $hartree_to_kcalmol * ( ( ( $freeEnergyX + 2*$G_Ethene - $freeEnergyD - 2*$G_Propene ) ) - ( $DG_referenceProductionBarrier + $magnitude4 ) ) / $kT ) )" | bc -l )

> <WEIGHT_DEFINITION_3>
w1=$( echo "1 / ( 1 + e( $hartree_to_kcalmol * ( ( ( $freeEnergyX + 2*$G_Ethene - $freeEnergyD - 2*$G_Propene ) ) - ( $DG_referenceProductionBarrier + $magnitude4 ) ) / $kT ) )" | bc -l )

> <WEIGHT_DEFINITION_4>
w1=$( echo "1 / ( 1 + e( $hartree_to_kcalmol * ( ( ( $freeEnergyX + 2*$G_Ethene - $freeEnergyD - 2*$G_Propene ) ) - ( $DG_referenceProductionBarrier + $magnitude4 ) ) / $kT ) )" | bc -l )

> <CALCULATION_OF_OVERALL_FITNESS>
fitness=$( echo "( $desc1 + $desc2 + $desc3 ) * ( $w1 * $w2 * $w3 * $w4 )" | bc -l )

> <freeEnergyA>
-3319.79155144

> <freeEnergyF>
-3319.77549143

> <freeEnergyE>
-3319.79155144

> <freeEnergyC>
-2974.53440947

> <freeEnergyL>
-1841.9325353

> <freeEnergyX>
-3053.06925205

> <freeEnergyZ>
-2974.51299376

> <freeEnergyD>
-2974.55762

> <G_Propene>
-117.738020895

> <G_Ethene>
-78.4716324751

> <G_HoveydaProd>
-502.204109499

> <G_SIMes>
-924.27249048

> <G_HG_RuCl2_SIMes>
-2402.13728523

> <DG_referenceProductionBarrier>
0.01468968

> <DG_referencePrecursorStabilityHII>
-0.0052201621

> <DG_referencePrecursorStabilityHI>
0.0117775312

> <DDG_referencePrecursorStability>
.0169976933

> <DG_referenceSynt>
0.0226072217

> <hartree_to_kcalmol>
627.49467516

> <boltzmann_constant>
0.0000000000000000000000138066

> <avogadro_number>
602214000000000000000000

> <jmol_to_kcalmol>
0.00023901

> <temp>
313.15

> <kT>
.6223089948281258706000000000

> <magnitude1>
1.43290809

> <magnitude2>
2.86581618

> <magnitude3>
4.29872427

> <magnitude4>
5.73163236

> <DFT_IDENTIFIER>
1723597271529

> <DFT_MACHINE>
158.39.114.73

> <XTB_IDENTIFIER>
1723596680121

> <XTB_MACHINE>
158.39.114.73

> <DESCRIPTOR_1>
3.52745104090588532364

> <DESCRIPTOR_2>
14.734484965534717032

> <DESCRIPTOR_3>
.706957463348886600

> <WEIGHT_1>
.99996788935310253479

> <WEIGHT_2>
.99999998336358979755

> <WEIGHT_3>
.99999999572896286961

> <WEIGHT_4>
.99999072986869275259

> <FITNESS>
18.96810813128776694349

$$$$
