
  CDK     08152409523D

 78 84  0  0  0  0  0  0  0  0999 V2000
   -1.5706   -1.4236   -3.8161 H   0  0  0  0  0  0  0  0  0  0  0  0
   -2.7845   -1.6242   -3.8264 C   0  0  0  0  0  0  0  0  0  0  0  0
   -2.7308   -1.8222   -4.9191 H   0  0  0  0  0  0  0  0  0  0  0  0
   -2.8959   -2.7001   -2.7967 C   0  0  0  0  0  0  0  0  0  0  0  0
   -3.8478   -2.7798   -2.2462 H   0  0  0  0  0  0  0  0  0  0  0  0
   -2.4220   -3.6637   -3.0553 H   0  0  0  0  0  0  0  0  0  0  0  0
   -1.6474   -1.2208   -2.0556 Ru  0  0  0  0  0  0  0  0  0  0  0  0
   -3.1933   -0.3281   -3.2675 C   0  0  0  0  0  0  0  0  0  0  0  0
   -4.1186   -0.2691   -2.6810 H   0  0  0  0  0  0  0  0  0  0  0  0
   -2.9175    0.5816   -3.8276 H   0  0  0  0  0  0  0  0  0  0  0  0
   -3.3652   -0.7569   -0.3713 Cl  0  0  0  0  0  0  0  0  0  0  0  0
    0.3819   -2.2397   -2.9002 Cl  0  0  0  0  0  0  0  0  0  0  0  0
   -0.7794   -1.3996   -0.2026 C   0  0  0  0  0  0  0  0  0  0  0  0
   -0.3782   -0.3700    0.5987 N   0  0  0  0  0  0  0  0  0  0  0  0
    0.5424   -0.8558    1.6600 C   0  0  0  0  0  0  0  0  0  0  0  0
    0.2229   -2.3783    1.6800 C   0  0  0  0  0  0  0  0  0  0  0  0
   -0.4148   -2.5687    0.3609 N   0  0  0  0  0  0  0  0  0  0  0  0
   -0.6686    1.0271    0.4686 C   0  0  0  0  0  0  0  0  0  0  0  0
   -1.1198    3.8215    0.2985 C   0  0  0  0  0  0  0  0  0  0  0  0
   -1.3017    1.7037    1.5413 C   0  0  0  0  0  0  0  0  0  0  0  0
   -0.3151    1.7286   -0.7076 C   0  0  0  0  0  0  0  0  0  0  0  0
   -0.5490    3.1122   -0.7697 C   0  0  0  0  0  0  0  0  0  0  0  0
   -1.4988    3.0915    1.4356 C   0  0  0  0  0  0  0  0  0  0  0  0
   -0.2694    3.6491   -1.6897 H   0  0  0  0  0  0  0  0  0  0  0  0
   -1.9956    3.6122    2.2694 H   0  0  0  0  0  0  0  0  0  0  0  0
    0.2779   -0.4048    2.6320 H   0  0  0  0  0  0  0  0  0  0  0  0
    1.1727   -2.9439    1.7212 H   0  0  0  0  0  0  0  0  0  0  0  0
    0.2315    1.0128   -1.8994 C   0  0  0  0  0  0  0  0  0  0  0  0
    0.9995    0.2588   -1.6578 H   0  0  0  0  0  0  0  0  0  0  0  0
    0.6388    1.7159   -2.6502 H   0  0  0  0  0  0  0  0  0  0  0  0
   -0.5991    0.4764   -2.4645 H   0  0  0  0  0  0  0  0  0  0  0  0
   -1.8302    0.9814    2.7520 C   0  0  0  0  0  0  0  0  0  0  0  0
   -2.6234    1.5803    3.2378 H   0  0  0  0  0  0  0  0  0  0  0  0
   -1.0507    0.7960    3.5225 H   0  0  0  0  0  0  0  0  0  0  0  0
   -2.2591    0.0029    2.4715 H   0  0  0  0  0  0  0  0  0  0  0  0
   -1.3137    5.3149    0.2285 C   0  0  0  0  0  0  0  0  0  0  0  0
   -2.1601    5.6455    0.8617 H   0  0  0  0  0  0  0  0  0  0  0  0
   -1.5048    5.6530   -0.8089 H   0  0  0  0  0  0  0  0  0  0  0  0
   -0.4080    5.8514    0.5852 H   0  0  0  0  0  0  0  0  0  0  0  0
   -0.6745   -3.9007   -0.2143 C   0  0  0  0  0  0  0  0  0  0  0  0
    0.2570   -6.1761   -0.7227 C   0  0  0  0  0  0  0  0  0  0  0  0
   -2.2436   -5.8383   -0.5132 C   0  0  0  0  0  0  0  0  0  0  0  0
   -1.0768   -6.8143   -0.3125 C   0  0  0  0  0  0  0  0  0  0  0  0
   -2.0058   -4.5215    0.2388 C   0  0  0  0  0  0  0  0  0  0  0  0
    0.5009   -4.8558    0.0226 C   0  0  0  0  0  0  0  0  0  0  0  0
    0.2490   -5.9723   -1.8165 H   0  0  0  0  0  0  0  0  0  0  0  0
   -2.3593   -5.6253   -1.5997 H   0  0  0  0  0  0  0  0  0  0  0  0
   -1.0273   -7.1069    0.7611 H   0  0  0  0  0  0  0  0  0  0  0  0
   -1.9827   -4.7195    1.3304 H   0  0  0  0  0  0  0  0  0  0  0  0
    0.6095   -5.0663    1.1104 H   0  0  0  0  0  0  0  0  0  0  0  0
   -0.7351   -3.7199   -1.3038 H   0  0  0  0  0  0  0  0  0  0  0  0
    1.0983   -6.8753   -0.5372 H   0  0  0  0  0  0  0  0  0  0  0  0
   -3.1978   -6.2963   -0.1804 H   0  0  0  0  0  0  0  0  0  0  0  0
   -1.2482   -7.7489   -0.8862 H   0  0  0  0  0  0  0  0  0  0  0  0
   -2.8242   -3.7977    0.0498 H   0  0  0  0  0  0  0  0  0  0  0  0
    1.4420   -4.3814   -0.3250 H   0  0  0  0  0  0  0  0  0  0  0  0
   -0.6595   -2.7885    2.8435 C   0  0  0  0  0  0  0  0  0  0  0  0
   -2.2419   -3.4486    5.0792 C   0  0  0  0  0  0  0  0  0  0  0  0
   -0.0761   -3.3724    3.9816 C   0  0  0  0  0  0  0  0  0  0  0  0
   -2.0463   -2.5428    2.8278 C   0  0  0  0  0  0  0  0  0  0  0  0
   -2.8303   -2.8712    3.9420 C   0  0  0  0  0  0  0  0  0  0  0  0
   -0.8622   -3.7013    5.0965 C   0  0  0  0  0  0  0  0  0  0  0  0
    1.0066   -3.5739    3.9918 H   0  0  0  0  0  0  0  0  0  0  0  0
   -2.5158   -2.1121    1.9293 H   0  0  0  0  0  0  0  0  0  0  0  0
   -3.9126   -2.6780    3.9183 H   0  0  0  0  0  0  0  0  0  0  0  0
   -0.3954   -4.1630    5.9787 H   0  0  0  0  0  0  0  0  0  0  0  0
   -2.8612   -3.7084    5.9500 H   0  0  0  0  0  0  0  0  0  0  0  0
    1.9840   -0.5271    1.3287 C   0  0  0  0  0  0  0  0  0  0  0  0
    4.6731    0.0802    0.7445 C   0  0  0  0  0  0  0  0  0  0  0  0
    2.7478    0.2491    2.2157 C   0  0  0  0  0  0  0  0  0  0  0  0
    2.5763   -0.9970    0.1379 C   0  0  0  0  0  0  0  0  0  0  0  0
    3.9136   -0.6940   -0.1489 C   0  0  0  0  0  0  0  0  0  0  0  0
    4.0877    0.5526    1.9276 C   0  0  0  0  0  0  0  0  0  0  0  0
    2.2839    0.6238    3.1413 H   0  0  0  0  0  0  0  0  0  0  0  0
    1.9884   -1.5925   -0.5788 H   0  0  0  0  0  0  0  0  0  0  0  0
    4.3639   -1.0623   -1.0821 H   0  0  0  0  0  0  0  0  0  0  0  0
    4.6734    1.1648    2.6286 H   0  0  0  0  0  0  0  0  0  0  0  0
    5.7218    0.3182    0.5145 H   0  0  0  0  0  0  0  0  0  0  0  0
  1  2  1  0  0  0  0
  1  7  1  0  0  0  0
  2  3  1  0  0  0  0
  2  4  1  0  0  0  0
  4  5  1  0  0  0  0
  4  6  1  0  0  0  0
  7  8  1  0  0  0  0
  4  7  1  0  0  0  0
  2  8  1  0  0  0  0
  8  9  1  0  0  0  0
  8 10  1  0  0  0  0
  7 11  1  0  0  0  0
  7 12  1  0  0  0  0
 13 14  1  0  0  0  0
 13 17  1  0  0  0  0
 14 15  1  0  0  0  0
 16 17  1  0  0  0  0
 18 21  2  0  0  0  0
 21 22  1  0  0  0  0
 19 22  2  0  0  0  0
 19 23  1  0  0  0  0
 20 23  2  0  0  0  0
 18 20  1  0  0  0  0
 22 24  1  0  0  0  0
 23 25  1  0  0  0  0
 14 18  1  0  0  0  0
 15 16  1  0  0  0  0
 15 26  1  0  0  0  0
 16 27  1  0  0  0  0
 28 29  1  0  0  0  0
 28 30  1  0  0  0  0
 28 31  1  0  0  0  0
 21 28  1  0  0  0  0
 32 33  1  0  0  0  0
 32 34  1  0  0  0  0
 32 35  1  0  0  0  0
 20 32  1  0  0  0  0
 36 37  1  0  0  0  0
 36 38  1  0  0  0  0
 36 39  1  0  0  0  0
 19 36  1  0  0  0  0
 40 51  1  0  0  0  0
 40 44  1  0  0  0  0
 40 45  1  0  0  0  0
 41 46  1  0  0  0  0
 41 52  1  0  0  0  0
 41 43  1  0  0  0  0
 41 45  1  0  0  0  0
 42 47  1  0  0  0  0
 42 53  1  0  0  0  0
 42 44  1  0  0  0  0
 42 43  1  0  0  0  0
 43 48  1  0  0  0  0
 43 54  1  0  0  0  0
 44 49  1  0  0  0  0
 44 55  1  0  0  0  0
 45 50  1  0  0  0  0
 45 56  1  0  0  0  0
 17 40  1  0  0  0  0
 57 60  2  0  0  0  0
 60 61  1  0  0  0  0
 58 61  2  0  0  0  0
 58 62  1  0  0  0  0
 59 62  2  0  0  0  0
 57 59  1  0  0  0  0
 61 65  1  0  0  0  0
 62 66  1  0  0  0  0
 58 67  1  0  0  0  0
 59 63  1  0  0  0  0
 60 64  1  0  0  0  0
 16 57  1  0  0  0  0
 68 71  2  0  0  0  0
 71 72  1  0  0  0  0
 69 72  2  0  0  0  0
 69 73  1  0  0  0  0
 70 73  2  0  0  0  0
 68 70  1  0  0  0  0
 72 76  1  0  0  0  0
 73 77  1  0  0  0  0
 69 78  1  0  0  0  0
 70 74  1  0  0  0  0
 71 75  1  0  0  0  0
 15 68  1  0  0  0  0
  7 13  1  0  0  0  0
M  END
>  <DFT-ENERGY>
-2404.25746509

$$$$
