dPhSIMesCyclohexyl-4_A1
  CDK     08122412413D

 92 98  0  0  0  0  0  0  0  0999 V2000
    1.7121   -0.4920   -0.7233 Ru  0  0  0  0  0  0  0  0  0  0  0  0
    3.4899   -0.4920   -2.1125 O   0  0  0  0  0  0  0  0  0  0  0  0
    2.9223   -1.4253    0.2808 C   0  0  0  0  0  0  0  0  0  0  0  0
    2.6895   -1.7182    1.3035 H   0  0  0  0  0  0  0  0  0  0  0  0
    3.7254    0.2832   -3.3383 C   0  0  0  0  0  0  0  0  0  0  0  0
    4.1381   -0.4164   -4.0959 H   0  0  0  0  0  0  0  0  0  0  0  0
    2.3049    0.7242   -3.6622 C   0  0  0  0  0  0  0  0  0  0  0  0
    2.2446    1.2319   -4.6283 H   0  0  0  0  0  0  0  0  0  0  0  0
    1.9185    1.4151   -2.8852 H   0  0  0  0  0  0  0  0  0  0  0  0
    1.6233   -0.1500   -3.6840 H   0  0  0  0  0  0  0  0  0  0  0  0
    4.6610    1.4302   -3.0020 C   0  0  0  0  0  0  0  0  0  0  0  0
    4.6566    2.2030   -3.7771 H   0  0  0  0  0  0  0  0  0  0  0  0
    5.6948    1.1034   -2.8496 H   0  0  0  0  0  0  0  0  0  0  0  0
    4.3394    1.9138   -2.0574 H   0  0  0  0  0  0  0  0  0  0  0  0
    4.4821   -1.2904   -1.6075 C   0  0  0  0  0  0  0  0  0  0  0  0
    5.6512   -1.6391   -2.2605 C   0  0  0  0  0  0  0  0  0  0  0  0
    5.8704   -1.2886   -3.2665 H   0  0  0  0  0  0  0  0  0  0  0  0
    6.5524   -2.4702   -1.6030 C   0  0  0  0  0  0  0  0  0  0  0  0
    7.4751   -2.7578   -2.1119 H   0  0  0  0  0  0  0  0  0  0  0  0
    6.3024   -2.9418   -0.3177 C   0  0  0  0  0  0  0  0  0  0  0  0
    7.0272   -3.5865    0.1767 H   0  0  0  0  0  0  0  0  0  0  0  0
    5.1327   -2.5815    0.3239 C   0  0  0  0  0  0  0  0  0  0  0  0
    4.9395   -2.9361    1.3352 H   0  0  0  0  0  0  0  0  0  0  0  0
    4.1972   -1.7661   -0.3155 C   0  0  0  0  0  0  0  0  0  0  0  0
    2.3231    1.7415   -0.1524 Cl  0  0  0  0  0  0  0  0  0  0  0  0
    0.8939   -2.1877   -2.0743 Cl  0  0  0  0  0  0  0  0  0  0  0  0
    0.1064   -0.3880    0.4156 C   0  0  0  0  0  0  0  0  0  0  0  0
   -0.1688   -0.7310    1.7289 N   0  0  0  0  0  0  0  0  0  0  0  0
   -1.5413   -0.3014    2.1923 C   0  0  0  0  0  0  0  0  0  0  0  0
   -2.0521    0.5587    0.9859 C   0  0  0  0  0  0  0  0  0  0  0  0
   -1.0326    0.2687   -0.0780 N   0  0  0  0  0  0  0  0  0  0  0  0
    0.6733   -1.4133    2.6791 C   0  0  0  0  0  0  0  0  0  0  0  0
    2.0963   -2.7279    4.7046 C   0  0  0  0  0  0  0  0  0  0  0  0
    1.3328   -0.6565    3.6778 C   0  0  0  0  0  0  0  0  0  0  0  0
    0.8055   -2.8230    2.6378 C   0  0  0  0  0  0  0  0  0  0  0  0
    1.5072   -3.4639    3.6664 C   0  0  0  0  0  0  0  0  0  0  0  0
    2.0258   -1.3283    4.6924 C   0  0  0  0  0  0  0  0  0  0  0  0
    1.5954   -4.5484    3.6575 H   0  0  0  0  0  0  0  0  0  0  0  0
    2.5197   -0.7545    5.4734 H   0  0  0  0  0  0  0  0  0  0  0  0
   -1.4188    0.3374    3.1070 H   0  0  0  0  0  0  0  0  0  0  0  0
   -3.0577    0.2075    0.6398 H   0  0  0  0  0  0  0  0  0  0  0  0
    0.2559   -3.6143    1.5009 C   0  0  0  0  0  0  0  0  0  0  0  0
   -0.8375   -3.7160    1.5730 H   0  0  0  0  0  0  0  0  0  0  0  0
    0.6727   -4.6277    1.4434 H   0  0  0  0  0  0  0  0  0  0  0  0
    0.4713   -3.1306    0.5239 H   0  0  0  0  0  0  0  0  0  0  0  0
    1.3264    0.8345    3.6289 C   0  0  0  0  0  0  0  0  0  0  0  0
    1.9623    1.2918    4.3969 H   0  0  0  0  0  0  0  0  0  0  0  0
    0.3162    1.2513    3.7476 H   0  0  0  0  0  0  0  0  0  0  0  0
    1.7051    1.1906    2.6478 H   0  0  0  0  0  0  0  0  0  0  0  0
    2.8175   -3.4416    5.8014 C   0  0  0  0  0  0  0  0  0  0  0  0
    3.1078   -2.7757    6.6245 H   0  0  0  0  0  0  0  0  0  0  0  0
    3.7387   -3.9119    5.4264 H   0  0  0  0  0  0  0  0  0  0  0  0
    2.2002   -4.2410    6.2359 H   0  0  0  0  0  0  0  0  0  0  0  0
   -1.2557    0.6530   -1.5054 C   0  0  0  0  0  0  0  0  0  0  0  0
   -2.8917    0.6763   -3.4252 C   0  0  0  0  0  0  0  0  0  0  0  0
   -1.1663    2.5182   -3.2056 C   0  0  0  0  0  0  0  0  0  0  0  0
   -2.5817    2.1581   -3.6784 C   0  0  0  0  0  0  0  0  0  0  0  0
   -0.9545    2.1483   -1.7324 C   0  0  0  0  0  0  0  0  0  0  0  0
   -2.6965    0.3096   -1.9474 C   0  0  0  0  0  0  0  0  0  0  0  0
   -2.2422    0.0407   -4.0594 H   0  0  0  0  0  0  0  0  0  0  0  0
   -0.4166    2.0023   -3.8366 H   0  0  0  0  0  0  0  0  0  0  0  0
   -3.3228    2.7912   -3.1533 H   0  0  0  0  0  0  0  0  0  0  0  0
   -1.6002    2.7769   -1.0892 H   0  0  0  0  0  0  0  0  0  0  0  0
   -3.4335    0.8580   -1.3304 H   0  0  0  0  0  0  0  0  0  0  0  0
   -0.5463    0.0341   -2.1374 H   0  0  0  0  0  0  0  0  0  0  0  0
   -3.9301    0.4487   -3.7309 H   0  0  0  0  0  0  0  0  0  0  0  0
   -0.9860    3.6014   -3.3435 H   0  0  0  0  0  0  0  0  0  0  0  0
   -2.6903    2.3876   -4.7546 H   0  0  0  0  0  0  0  0  0  0  0  0
    0.0893    2.3715   -1.4207 H   0  0  0  0  0  0  0  0  0  0  0  0
   -2.8923   -0.7689   -1.7969 H   0  0  0  0  0  0  0  0  0  0  0  0
   -2.1267    2.0213    1.3753 C   0  0  0  0  0  0  0  0  0  0  0  0
   -2.3254    4.7015    2.1710 C   0  0  0  0  0  0  0  0  0  0  0  0
   -3.3822    2.5841    1.6489 C   0  0  0  0  0  0  0  0  0  0  0  0
   -0.9714    2.8062    1.5005 C   0  0  0  0  0  0  0  0  0  0  0  0
   -1.0734    4.1424    1.8956 C   0  0  0  0  0  0  0  0  0  0  0  0
   -3.4787    3.9207    2.0462 C   0  0  0  0  0  0  0  0  0  0  0  0
   -4.2863    1.9850    1.5547 H   0  0  0  0  0  0  0  0  0  0  0  0
    0.0119    2.3797    1.2680 H   0  0  0  0  0  0  0  0  0  0  0  0
   -0.1719    4.7486    1.9840 H   0  0  0  0  0  0  0  0  0  0  0  0
   -4.4549    4.3539    2.2573 H   0  0  0  0  0  0  0  0  0  0  0  0
   -2.4020    5.7426    2.4789 H   0  0  0  0  0  0  0  0  0  0  0  0
   -2.4476   -1.4738    2.4963 C   0  0  0  0  0  0  0  0  0  0  0  0
   -4.1702   -3.6023    3.1022 C   0  0  0  0  0  0  0  0  0  0  0  0
   -2.8456   -1.7042    3.8211 C   0  0  0  0  0  0  0  0  0  0  0  0
   -2.9084   -2.3216    1.4776 C   0  0  0  0  0  0  0  0  0  0  0  0
   -3.7678   -3.3803    1.7811 C   0  0  0  0  0  0  0  0  0  0  0  0
   -3.7054   -2.7652    4.1206 C   0  0  0  0  0  0  0  0  0  0  0  0
   -2.4829   -1.0624    4.6232 H   0  0  0  0  0  0  0  0  0  0  0  0
   -2.5845   -2.1625    0.4475 H   0  0  0  0  0  0  0  0  0  0  0  0
   -4.1227   -4.0351    0.9862 H   0  0  0  0  0  0  0  0  0  0  0  0
   -4.0110   -2.9397    5.1512 H   0  0  0  0  0  0  0  0  0  0  0  0
   -4.8410   -4.4270    3.3366 H   0  0  0  0  0  0  0  0  0  0  0  0
  1  2  1  0  0  0  0
  1  3  2  0  0  0  0
  3  4  1  0  0  0  0
  2  5  1  0  0  0  0
  5  6  1  0  0  0  0
  5  7  1  0  0  0  0
  7  8  1  0  0  0  0
  7  9  1  0  0  0  0
  7 10  1  0  0  0  0
  5 11  1  0  0  0  0
 11 12  1  0  0  0  0
 11 13  1  0  0  0  0
 11 14  1  0  0  0  0
  2 15  1  0  0  0  0
 15 24  1  0  0  0  0
 15 16  2  0  0  0  0
 16 17  1  0  0  0  0
 16 18  1  0  0  0  0
 18 19  1  0  0  0  0
 18 20  2  0  0  0  0
 20 21  1  0  0  0  0
 20 22  1  0  0  0  0
 22 24  2  0  0  0  0
 22 23  1  0  0  0  0
  3 24  1  0  0  0  0
  1 25  1  0  0  0  0
  1 26  1  0  0  0  0
 27 28  1  0  0  0  0
 27 31  1  0  0  0  0
 28 29  1  0  0  0  0
 30 31  1  0  0  0  0
 32 35  2  0  0  0  0
 35 36  1  0  0  0  0
 33 36  2  0  0  0  0
 33 37  1  0  0  0  0
 34 37  2  0  0  0  0
 32 34  1  0  0  0  0
 36 38  1  0  0  0  0
 37 39  1  0  0  0  0
 28 32  1  0  0  0  0
 29 30  1  0  0  0  0
 29 40  1  0  0  0  0
 30 41  1  0  0  0  0
 42 43  1  0  0  0  0
 42 44  1  0  0  0  0
 42 45  1  0  0  0  0
 35 42  1  0  0  0  0
 46 47  1  0  0  0  0
 46 48  1  0  0  0  0
 46 49  1  0  0  0  0
 34 46  1  0  0  0  0
 50 51  1  0  0  0  0
 50 52  1  0  0  0  0
 50 53  1  0  0  0  0
 33 50  1  0  0  0  0
 54 65  1  0  0  0  0
 54 58  1  0  0  0  0
 54 59  1  0  0  0  0
 55 60  1  0  0  0  0
 55 66  1  0  0  0  0
 55 57  1  0  0  0  0
 55 59  1  0  0  0  0
 56 61  1  0  0  0  0
 56 67  1  0  0  0  0
 56 58  1  0  0  0  0
 56 57  1  0  0  0  0
 57 62  1  0  0  0  0
 57 68  1  0  0  0  0
 58 63  1  0  0  0  0
 58 69  1  0  0  0  0
 59 64  1  0  0  0  0
 59 70  1  0  0  0  0
 31 54  1  0  0  0  0
 71 74  2  0  0  0  0
 74 75  1  0  0  0  0
 72 75  2  0  0  0  0
 72 76  1  0  0  0  0
 73 76  2  0  0  0  0
 71 73  1  0  0  0  0
 75 79  1  0  0  0  0
 76 80  1  0  0  0  0
 72 81  1  0  0  0  0
 73 77  1  0  0  0  0
 74 78  1  0  0  0  0
 30 71  1  0  0  0  0
 82 85  2  0  0  0  0
 85 86  1  0  0  0  0
 83 86  2  0  0  0  0
 83 87  1  0  0  0  0
 84 87  2  0  0  0  0
 82 84  1  0  0  0  0
 86 90  1  0  0  0  0
 87 91  1  0  0  0  0
 83 92  1  0  0  0  0
 84 88  1  0  0  0  0
 85 89  1  0  0  0  0
 29 82  1  0  0  0  0
  1 27  1  0  0  0  0
M  END
> <FrozenCore-PM6_ENERGY>
116.533

> <RMSD_CONF_CG-CS>
0.473199

> <RMSD_CONF_GO-CS>
0.000000

> <UID>


> <DESCRIPTOR_DEFINITION_1>
desc1=( echo "1 * ( e( $hartree_to_kcalmol * ( ( $freeEnergyZ - $freeEnergyD ) - ( $freeEnergyX + 2*$G_Ethene - $freeEnergyD - 2*$G_Propene ) - $DDG_reference_HGII ) / $kT ) ) " | bc -l )

> <DESCRIPTOR_DEFINITION_2>
desc1=( echo "1 * ( e( $hartree_to_kcalmol * ( ( $freeEnergyZ - $freeEnergyD ) - ( $freeEnergyX + 2*$G_Ethene - $freeEnergyD - 2*$G_Propene ) - $DDG_reference_HGII ) / $kT ) ) " | bc -l )

> <DESCRIPTOR_DEFINITION_3>
desc1=( echo "1 * ( e( $hartree_to_kcalmol * ( ( $freeEnergyZ - $freeEnergyD ) - ( $freeEnergyX + 2*$G_Ethene - $freeEnergyD - 2*$G_Propene ) - $DDG_reference_HGII ) / $kT ) ) " | bc -l )

> <WEIGHT_DEFINITION_1>
w1=$( echo "1 / ( 1 + e( $hartree_to_kcalmol * ( ( ( $freeEnergyX + 2*$G_Ethene - $freeEnergyD - 2*$G_Propene ) ) - ( $DG_referenceProductionBarrier + $magnitude4 ) ) / $kT ) )" | bc -l )

> <WEIGHT_DEFINITION_2>
w1=$( echo "1 / ( 1 + e( $hartree_to_kcalmol * ( ( ( $freeEnergyX + 2*$G_Ethene - $freeEnergyD - 2*$G_Propene ) ) - ( $DG_referenceProductionBarrier + $magnitude4 ) ) / $kT ) )" | bc -l )

> <WEIGHT_DEFINITION_3>
w1=$( echo "1 / ( 1 + e( $hartree_to_kcalmol * ( ( ( $freeEnergyX + 2*$G_Ethene - $freeEnergyD - 2*$G_Propene ) ) - ( $DG_referenceProductionBarrier + $magnitude4 ) ) / $kT ) )" | bc -l )

> <WEIGHT_DEFINITION_4>
w1=$( echo "1 / ( 1 + e( $hartree_to_kcalmol * ( ( ( $freeEnergyX + 2*$G_Ethene - $freeEnergyD - 2*$G_Propene ) ) - ( $DG_referenceProductionBarrier + $magnitude4 ) ) / $kT ) )" | bc -l )

> <CALCULATION_OF_OVERALL_FITNESS>
fitness=$( echo "( $desc1 + $desc2 + $desc3 ) * ( $w1 * $w2 * $w3 * $w4 )" | bc -l )

> <freeEnergyA>
-2749.53170568

> <freeEnergyF>
-2749.51395365

> <freeEnergyE>
-2749.53170568

> <freeEnergyC>
-2404.2718507

> <freeEnergyL>
-1271.66024887

> <freeEnergyX>
-2482.80578482

> <freeEnergyZ>
-2404.25746449

> <freeEnergyD>
-2404.29784265

> <G_Propene>
-117.738020895

> <G_Ethene>
-78.4716324751

> <G_HoveydaProd>
-502.204109499

> <G_SIMes>
-924.27249048

> <G_HG_RuCl2_SIMes>
-2402.13728523

> <DG_referenceProductionBarrier>
0.01468968

> <DG_referencePrecursorStabilityHII>
-0.0052201621

> <DG_referencePrecursorStabilityHI>
0.0117775312

> <DDG_referencePrecursorStability>
.0169976933

> <DG_referenceSynt>
0.0226072217

> <hartree_to_kcalmol>
627.49467516

> <boltzmann_constant>
0.0000000000000000000000138066

> <avogadro_number>
602214000000000000000000

> <jmol_to_kcalmol>
0.00023901

> <temp>
313.15

> <kT>
.6223089948281258706000000000

> <magnitude1>
1.43290809

> <magnitude2>
2.86581618

> <magnitude3>
4.29872427

> <magnitude4>
5.73163236

> <DFT_IDENTIFIER>
1723728033925

> <DFT_MACHINE>
158.39.114.73

> <XTB_IDENTIFIER>
NREC

> <XTB_MACHINE>
NREC

> <DESCRIPTOR_1>
.00117847831823575438

> <DESCRIPTOR_2>
9.753457333901643432

> <DESCRIPTOR_3>
0.0000000001

> <WEIGHT_1>
.99867585480938993109

> <WEIGHT_2>
.99999974347891548474

> <WEIGHT_3>
.99999999999998477362

> <WEIGHT_4>
.99999831681878306471

> <FITNESS>
9.74170036219163568105

$$$$
