
  CDK     08132403433D

 64 67  0  0  0  0  0  0  0  0999 V2000
   -0.6841    3.9459   -1.8900 C   0  0  0  0  0  0  0  0  0  0  0  0
    0.2669    3.8953   -2.4496 H   0  0  0  0  0  0  0  0  0  0  0  0
   -1.2648    4.8397   -2.2089 H   0  0  0  0  0  0  0  0  0  0  0  0
   -1.3016    3.0658   -2.1748 H   0  0  0  0  0  0  0  0  0  0  0  0
   -0.4692    4.0111   -0.3954 C   0  0  0  0  0  0  0  0  0  0  0  0
   -1.3797    4.1455    0.2166 H   0  0  0  0  0  0  0  0  0  0  0  0
    0.7485    4.4182    0.2115 C   0  0  0  0  0  0  0  0  0  0  0  0
    1.6269    4.5420   -0.4454 H   0  0  0  0  0  0  0  0  0  0  0  0
    0.7090    5.2160    1.4963 C   0  0  0  0  0  0  0  0  0  0  0  0
    1.6770    5.2227    2.0321 H   0  0  0  0  0  0  0  0  0  0  0  0
    0.4643    6.2696    1.2406 H   0  0  0  0  0  0  0  0  0  0  0  0
   -0.0817    4.8368    2.1727 H   0  0  0  0  0  0  0  0  0  0  0  0
    1.5916    2.5879    1.3626 C   0  0  0  0  0  0  0  0  0  0  0  0
    1.2877    2.7792    2.4154 H   0  0  0  0  0  0  0  0  0  0  0  0
    2.6715    2.7043    1.1132 H   0  0  0  0  0  0  0  0  0  0  0  0
    0.3838    2.0927    0.0909 Ru  0  0  0  0  0  0  0  0  0  0  0  0
   -1.3624    2.0737    1.7606 Cl  0  0  0  0  0  0  0  0  0  0  0  0
    2.0709    2.0927   -1.6056 Cl  0  0  0  0  0  0  0  0  0  0  0  0
    0.1916   -0.2595   -0.0732 P   0  0  0  0  0  0  0  0  0  0  0  0
   -1.0382   -0.6444   -1.4278 C   0  0  0  0  0  0  0  0  0  0  0  0
   -1.1508   -1.7518   -1.4481 H   0  0  0  0  0  0  0  0  0  0  0  0
   -2.4097   -0.0268   -1.0961 C   0  0  0  0  0  0  0  0  0  0  0  0
   -2.7864   -0.4053   -0.1248 H   0  0  0  0  0  0  0  0  0  0  0  0
   -2.2962    1.0713   -0.9555 H   0  0  0  0  0  0  0  0  0  0  0  0
   -2.9073    0.1705   -3.5759 C   0  0  0  0  0  0  0  0  0  0  0  0
   -2.8013    1.2792   -3.5575 H   0  0  0  0  0  0  0  0  0  0  0  0
   -3.6442   -0.0608   -4.3728 H   0  0  0  0  0  0  0  0  0  0  0  0
   -0.4423   -1.1021    1.4711 C   0  0  0  0  0  0  0  0  0  0  0  0
   -1.3668   -0.5279    1.6983 H   0  0  0  0  0  0  0  0  0  0  0  0
    1.7165   -1.1995   -0.4926 C   0  0  0  0  0  0  0  0  0  0  0  0
   -0.5188   -0.1735   -2.7977 C   0  0  0  0  0  0  0  0  0  0  0  0
   -0.3008    0.9153   -2.7550 H   0  0  0  0  0  0  0  0  0  0  0  0
    0.4526   -0.6541   -3.0282 H   0  0  0  0  0  0  0  0  0  0  0  0
   -1.5467   -0.4588   -3.9003 C   0  0  0  0  0  0  0  0  0  0  0  0
   -1.1639   -0.0851   -4.8724 H   0  0  0  0  0  0  0  0  0  0  0  0
   -1.6712   -1.5600   -4.0134 H   0  0  0  0  0  0  0  0  0  0  0  0
   -3.4235   -0.3079   -2.2133 C   0  0  0  0  0  0  0  0  0  0  0  0
   -3.6205   -1.4031   -2.2610 H   0  0  0  0  0  0  0  0  0  0  0  0
   -4.3922    0.1746   -1.9680 H   0  0  0  0  0  0  0  0  0  0  0  0
    0.5395   -0.8714    2.6312 C   0  0  0  0  0  0  0  0  0  0  0  0
    1.5166   -1.3465    2.3895 H   0  0  0  0  0  0  0  0  0  0  0  0
    0.7141    0.2168    2.7486 H   0  0  0  0  0  0  0  0  0  0  0  0
   -0.7684   -2.5920    1.2974 C   0  0  0  0  0  0  0  0  0  0  0  0
    0.1530   -3.1424    1.0057 H   0  0  0  0  0  0  0  0  0  0  0  0
   -1.5066   -2.7431    0.4822 H   0  0  0  0  0  0  0  0  0  0  0  0
   -0.3455   -2.9548    3.7739 C   0  0  0  0  0  0  0  0  0  0  0  0
    0.5935   -3.5220    3.5808 H   0  0  0  0  0  0  0  0  0  0  0  0
   -0.7719   -3.3618    4.7144 H   0  0  0  0  0  0  0  0  0  0  0  0
   -1.3164   -3.1800    2.6084 C   0  0  0  0  0  0  0  0  0  0  0  0
   -2.2904   -2.6953    2.8439 H   0  0  0  0  0  0  0  0  0  0  0  0
   -1.5248   -4.2622    2.4755 H   0  0  0  0  0  0  0  0  0  0  0  0
   -0.0127   -1.4663    3.9336 C   0  0  0  0  0  0  0  0  0  0  0  0
    0.7178   -1.3162    4.7556 H   0  0  0  0  0  0  0  0  0  0  0  0
   -0.9318   -0.9080    4.2197 H   0  0  0  0  0  0  0  0  0  0  0  0
    1.6589   -2.4325   -1.1733 C   0  0  0  0  0  0  0  0  0  0  0  0
    2.9625   -0.7153   -0.0503 C   0  0  0  0  0  0  0  0  0  0  0  0
    2.8300   -3.1693   -1.4043 C   0  0  0  0  0  0  0  0  0  0  0  0
    0.6972   -2.8257   -1.5321 H   0  0  0  0  0  0  0  0  0  0  0  0
    3.0140    0.2608    0.4495 H   0  0  0  0  0  0  0  0  0  0  0  0
    4.1290   -1.4601   -0.2709 C   0  0  0  0  0  0  0  0  0  0  0  0
    4.0662   -2.6866   -0.9495 C   0  0  0  0  0  0  0  0  0  0  0  0
    5.0963   -1.0701    0.0772 H   0  0  0  0  0  0  0  0  0  0  0  0
    2.7735   -4.1267   -1.9424 H   0  0  0  0  0  0  0  0  0  0  0  0
    4.9837   -3.2650   -1.1309 H   0  0  0  0  0  0  0  0  0  0  0  0
  1  2  1  0  0  0  0
  1  5  1  0  0  0  0
  1  3  1  0  0  0  0
  1  4  1  0  0  0  0
  5  6  1  0  0  0  0
  5 16  1  0  0  0  0
  5  7  1  0  0  0  0
  7  9  1  0  0  0  0
  7  8  1  0  0  0  0
  9 10  1  0  0  0  0
  9 11  1  0  0  0  0
  9 12  1  0  0  0  0
 13 14  1  0  0  0  0
 13 15  1  0  0  0  0
  7 13  1  0  0  0  0
 13 16  1  0  0  0  0
 16 17  1  0  0  0  0
 16 18  1  0  0  0  0
 19 20  1  0  0  0  0
 20 21  1  0  0  0  0
 20 22  1  0  0  0  0
 22 23  1  0  0  0  0
 22 24  1  0  0  0  0
 25 26  1  0  0  0  0
 25 37  1  0  0  0  0
 25 27  1  0  0  0  0
 19 28  1  0  0  0  0
 28 29  1  0  0  0  0
 19 30  1  0  0  0  0
 20 31  1  0  0  0  0
 31 34  1  0  0  0  0
 31 32  1  0  0  0  0
 31 33  1  0  0  0  0
 25 34  1  0  0  0  0
 34 35  1  0  0  0  0
 34 36  1  0  0  0  0
 22 37  1  0  0  0  0
 37 38  1  0  0  0  0
 37 39  1  0  0  0  0
 28 40  1  0  0  0  0
 40 41  1  0  0  0  0
 40 42  1  0  0  0  0
 28 43  1  0  0  0  0
 43 44  1  0  0  0  0
 43 45  1  0  0  0  0
 46 47  1  0  0  0  0
 46 49  1  0  0  0  0
 46 52  1  0  0  0  0
 46 48  1  0  0  0  0
 43 49  1  0  0  0  0
 49 50  1  0  0  0  0
 49 51  1  0  0  0  0
 40 52  1  0  0  0  0
 52 53  1  0  0  0  0
 52 54  1  0  0  0  0
 30 55  2  0  0  0  0
 30 56  1  0  0  0  0
 55 57  1  0  0  0  0
 57 61  2  0  0  0  0
 55 58  1  0  0  0  0
 56 59  1  0  0  0  0
 56 60  2  0  0  0  0
 60 61  1  0  0  0  0
 60 62  1  0  0  0  0
 57 63  1  0  0  0  0
 61 64  1  0  0  0  0
 16 19  1  0  0  0  0
M  END
>  <DFT-ENERGY>
-2253.62927889

$$$$
