PhCyCyP-5_A1
  CDK     08122415463D

 72 76  0  0  0  0  0  0  0  0999 V2000
   -0.9584    0.1097   -0.8085 Ru  0  0  0  0  0  0  0  0  0  0  0  0
   -2.7328    0.2192   -2.1977 O   0  0  0  0  0  0  0  0  0  0  0  0
   -2.1088    1.1158    0.1956 C   0  0  0  0  0  0  0  0  0  0  0  0
   -1.8584    1.3938    1.2183 H   0  0  0  0  0  0  0  0  0  0  0  0
   -3.0156   -0.5400   -3.4235 C   0  0  0  0  0  0  0  0  0  0  0  0
   -3.3810    0.1797   -4.1864 H   0  0  0  0  0  0  0  0  0  0  0  0
   -1.6232   -1.0685   -3.7441 C   0  0  0  0  0  0  0  0  0  0  0  0
   -1.5877   -1.5573   -4.7215 H   0  0  0  0  0  0  0  0  0  0  0  0
   -1.2891   -1.8001   -2.9838 H   0  0  0  0  0  0  0  0  0  0  0  0
   -0.8851   -0.2409   -3.7461 H   0  0  0  0  0  0  0  0  0  0  0  0
   -4.0228   -1.6280   -3.0950 C   0  0  0  0  0  0  0  0  0  0  0  0
   -4.0686   -2.3919   -3.8776 H   0  0  0  0  0  0  0  0  0  0  0  0
   -5.0333   -1.2350   -2.9412 H   0  0  0  0  0  0  0  0  0  0  0  0
   -3.7349   -2.1376   -2.1551 H   0  0  0  0  0  0  0  0  0  0  0  0
   -3.6740    1.0772   -1.6926 C   0  0  0  0  0  0  0  0  0  0  0  0
   -4.8194    1.4973   -2.3456 C   0  0  0  0  0  0  0  0  0  0  0  0
   -5.0589    1.1610   -3.3518 H   0  0  0  0  0  0  0  0  0  0  0  0
   -5.6677    2.3823   -1.6882 C   0  0  0  0  0  0  0  0  0  0  0  0
   -6.5709    2.7265   -2.1969 H   0  0  0  0  0  0  0  0  0  0  0  0
   -5.3891    2.8376   -0.4028 C   0  0  0  0  0  0  0  0  0  0  0  0
   -6.0729    3.5256    0.0915 H   0  0  0  0  0  0  0  0  0  0  0  0
   -4.2439    2.4059    0.2388 C   0  0  0  0  0  0  0  0  0  0  0  0
   -4.0291    2.7479    1.2501 H   0  0  0  0  0  0  0  0  0  0  0  0
   -3.3603    1.5344   -0.4006 C   0  0  0  0  0  0  0  0  0  0  0  0
   -1.6775   -1.9989   -0.2592 Cl  0  0  0  0  0  0  0  0  0  0  0  0
   -0.0332    1.7590   -2.1655 Cl  0  0  0  0  0  0  0  0  0  0  0  0
    0.7177    0.0743    0.6326 P   0  0  0  0  0  0  0  0  0  0  0  0
    2.1881   -0.8942   -0.1388 C   0  0  0  0  0  0  0  0  0  0  0  0
    2.8955   -1.1933    0.6704 H   0  0  0  0  0  0  0  0  0  0  0  0
    1.6301   -2.1528   -0.8186 C   0  0  0  0  0  0  0  0  0  0  0  0
    1.0764   -2.7989   -0.1050 H   0  0  0  0  0  0  0  0  0  0  0  0
    0.8947   -1.8926   -1.6193 H   0  0  0  0  0  0  0  0  0  0  0  0
    3.5739   -2.1045   -2.4487 C   0  0  0  0  0  0  0  0  0  0  0  0
    2.9368   -1.8549   -3.3196 H   0  0  0  0  0  0  0  0  0  0  0  0
    4.4252   -2.6855   -2.8489 H   0  0  0  0  0  0  0  0  0  0  0  0
    0.3366   -0.8499    2.2825 C   0  0  0  0  0  0  0  0  0  0  0  0
   -0.3383   -1.7086    2.0100 H   0  0  0  0  0  0  0  0  0  0  0  0
    1.4899    1.6825    1.2091 C   0  0  0  0  0  0  0  0  0  0  0  0
    2.9335   -0.0162   -1.1514 C   0  0  0  0  0  0  0  0  0  0  0  0
    2.2457    0.3423   -1.9525 H   0  0  0  0  0  0  0  0  0  0  0  0
    3.3447    0.8970   -0.6762 H   0  0  0  0  0  0  0  0  0  0  0  0
    4.0823   -0.8113   -1.7959 C   0  0  0  0  0  0  0  0  0  0  0  0
    4.5883   -0.1823   -2.5527 H   0  0  0  0  0  0  0  0  0  0  0  0
    4.8478   -1.0509   -1.0343 H   0  0  0  0  0  0  0  0  0  0  0  0
    2.7771   -2.9594   -1.4532 C   0  0  0  0  0  0  0  0  0  0  0  0
    3.4499   -3.3416   -0.6625 H   0  0  0  0  0  0  0  0  0  0  0  0
    2.3673   -3.8511   -1.9639 H   0  0  0  0  0  0  0  0  0  0  0  0
   -0.4289    0.0956    3.2178 C   0  0  0  0  0  0  0  0  0  0  0  0
    0.1845    0.9812    3.4855 H   0  0  0  0  0  0  0  0  0  0  0  0
   -1.3493    0.4832    2.7257 H   0  0  0  0  0  0  0  0  0  0  0  0
    1.5826   -1.4174    2.9721 C   0  0  0  0  0  0  0  0  0  0  0  0
    2.3099   -0.6117    3.2147 H   0  0  0  0  0  0  0  0  0  0  0  0
    2.1129   -2.1354    2.3139 H   0  0  0  0  0  0  0  0  0  0  0  0
    0.4060   -1.2218    5.2155 C   0  0  0  0  0  0  0  0  0  0  0  0
    1.0586   -0.4026    5.5731 H   0  0  0  0  0  0  0  0  0  0  0  0
    0.0950   -1.7822    6.1169 H   0  0  0  0  0  0  0  0  0  0  0  0
    1.1924   -2.1422    4.2727 C   0  0  0  0  0  0  0  0  0  0  0  0
    0.5840   -3.0362    4.0319 H   0  0  0  0  0  0  0  0  0  0  0  0
    2.1009   -2.5169    4.7793 H   0  0  0  0  0  0  0  0  0  0  0  0
   -0.8255   -0.6370    4.5111 C   0  0  0  0  0  0  0  0  0  0  0  0
   -1.3562    0.0575    5.1882 H   0  0  0  0  0  0  0  0  0  0  0  0
   -1.5444   -1.4466    4.2767 H   0  0  0  0  0  0  0  0  0  0  0  0
    2.6144    1.6658    2.0391 C   0  0  0  0  0  0  0  0  0  0  0  0
    0.9359    2.8920    0.7912 C   0  0  0  0  0  0  0  0  0  0  0  0
    3.1954    2.8706    2.4452 C   0  0  0  0  0  0  0  0  0  0  0  0
    3.0498    0.7261    2.3957 H   0  0  0  0  0  0  0  0  0  0  0  0
    0.0523    2.9324    0.1377 H   0  0  0  0  0  0  0  0  0  0  0  0
    1.5212    4.0992    1.1997 C   0  0  0  0  0  0  0  0  0  0  0  0
    2.6498    4.0887    2.0219 C   0  0  0  0  0  0  0  0  0  0  0  0
    1.0955    5.0446    0.8653 H   0  0  0  0  0  0  0  0  0  0  0  0
    4.0728    2.8630    3.0889 H   0  0  0  0  0  0  0  0  0  0  0  0
    3.1069    5.0271    2.3340 H   0  0  0  0  0  0  0  0  0  0  0  0
  2  1  1  0  0  0  0
  3  1  2  0  0  0  0
  4  3  1  0  0  0  0
  5  2  1  0  0  0  0
  6  5  1  0  0  0  0
  7  5  1  0  0  0  0
  8  7  1  0  0  0  0
  9  7  1  0  0  0  0
 10  7  1  0  0  0  0
 11  5  1  0  0  0  0
 12 11  1  0  0  0  0
 13 11  1  0  0  0  0
 14 11  1  0  0  0  0
 15  2  1  0  0  0  0
 15 24  1  0  0  0  0
 16 15  2  0  0  0  0
 17 16  1  0  0  0  0
 18 16  1  0  0  0  0
 19 18  1  0  0  0  0
 20 18  2  0  0  0  0
 21 20  1  0  0  0  0
 22 20  1  0  0  0  0
 22 24  2  0  0  0  0
 23 22  1  0  0  0  0
 24  3  1  0  0  0  0
  1 25  1  0  0  0  0
  1 26  1  0  0  0  0
 28 27  1  0  0  0  0
 29 28  1  0  0  0  0
 30 28  1  0  0  0  0
 31 30  1  0  0  0  0
 32 30  1  0  0  0  0
 33 34  1  0  0  0  0
 33 45  1  0  0  0  0
 35 33  1  0  0  0  0
 36 27  1  0  0  0  0
 37 36  1  0  0  0  0
 38 27  1  0  0  0  0
 39 28  1  0  0  0  0
 39 42  1  0  0  0  0
 40 39  1  0  0  0  0
 41 39  1  0  0  0  0
 42 33  1  0  0  0  0
 43 42  1  0  0  0  0
 44 42  1  0  0  0  0
 45 30  1  0  0  0  0
 46 45  1  0  0  0  0
 47 45  1  0  0  0  0
 48 36  1  0  0  0  0
 49 48  1  0  0  0  0
 50 48  1  0  0  0  0
 51 36  1  0  0  0  0
 52 51  1  0  0  0  0
 53 51  1  0  0  0  0
 54 55  1  0  0  0  0
 54 57  1  0  0  0  0
 54 60  1  0  0  0  0
 56 54  1  0  0  0  0
 57 51  1  0  0  0  0
 58 57  1  0  0  0  0
 59 57  1  0  0  0  0
 60 48  1  0  0  0  0
 61 60  1  0  0  0  0
 62 60  1  0  0  0  0
 63 38  2  0  0  0  0
 64 38  1  0  0  0  0
 65 63  1  0  0  0  0
 65 69  2  0  0  0  0
 66 63  1  0  0  0  0
 67 64  1  0  0  0  0
 68 64  2  0  0  0  0
 69 68  1  0  0  0  0
 70 68  1  0  0  0  0
 71 65  1  0  0  0  0
 72 69  1  0  0  0  0
  1 27  1  0  0  0  0
M  END
> <FrozenCore-PM6_ENERGY>
315.053

> <RMSD_CONF_CG-CS>
0.458389

> <RMSD_CONF_GO-CS>
0.000000

> <UID>


> <DESCRIPTOR_DEFINITION_1>
desc1=( echo "1 * ( e( $hartree_to_kcalmol * ( ( $freeEnergyZ - $freeEnergyD ) - ( $freeEnergyX + 2*$G_Ethene - $freeEnergyD - 2*$G_Propene ) - $DDG_reference_HGII ) / $kT ) ) " | bc -l )

> <DESCRIPTOR_DEFINITION_2>
desc1=( echo "1 * ( e( $hartree_to_kcalmol * ( ( $freeEnergyZ - $freeEnergyD ) - ( $freeEnergyX + 2*$G_Ethene - $freeEnergyD - 2*$G_Propene ) - $DDG_reference_HGII ) / $kT ) ) " | bc -l )

> <DESCRIPTOR_DEFINITION_3>
desc1=( echo "1 * ( e( $hartree_to_kcalmol * ( ( $freeEnergyZ - $freeEnergyD ) - ( $freeEnergyX + 2*$G_Ethene - $freeEnergyD - 2*$G_Propene ) - $DDG_reference_HGII ) / $kT ) ) " | bc -l )

> <WEIGHT_DEFINITION_1>
w1=$( echo "1 / ( 1 + e( $hartree_to_kcalmol * ( ( ( $freeEnergyX + 2*$G_Ethene - $freeEnergyD - 2*$G_Propene ) ) - ( $DG_referenceProductionBarrier + $magnitude4 ) ) / $kT ) )" | bc -l )

> <WEIGHT_DEFINITION_2>
w1=$( echo "1 / ( 1 + e( $hartree_to_kcalmol * ( ( ( $freeEnergyX + 2*$G_Ethene - $freeEnergyD - 2*$G_Propene ) ) - ( $DG_referenceProductionBarrier + $magnitude4 ) ) / $kT ) )" | bc -l )

> <WEIGHT_DEFINITION_3>
w1=$( echo "1 / ( 1 + e( $hartree_to_kcalmol * ( ( ( $freeEnergyX + 2*$G_Ethene - $freeEnergyD - 2*$G_Propene ) ) - ( $DG_referenceProductionBarrier + $magnitude4 ) ) / $kT ) )" | bc -l )

> <WEIGHT_DEFINITION_4>
w1=$( echo "1 / ( 1 + e( $hartree_to_kcalmol * ( ( ( $freeEnergyX + 2*$G_Ethene - $freeEnergyD - 2*$G_Propene ) ) - ( $DG_referenceProductionBarrier + $magnitude4 ) ) / $kT ) )" | bc -l )

> <CALCULATION_OF_OVERALL_FITNESS>
fitness=$( echo "( $desc1 + $desc2 + $desc3 ) * ( $w1 * $w2 * $w3 * $w4 )" | bc -l )

> <freeEnergyA>
-2520.36679579

> <freeEnergyF>
-2520.34242483

> <freeEnergyE>
-2520.36679579

> <freeEnergyC>
-2175.09219935

> <freeEnergyL>
-1042.52372636

> <freeEnergyX>
-2253.62927883

> <freeEnergyZ>
-2175.08189361

> <freeEnergyD>
-2175.11636252

> <G_Propene>
-117.738020895

> <G_Ethene>
-78.4716324751

> <G_HoveydaProd>
-502.204109499

> <G_SIMes>
-924.27249048

> <G_HG_RuCl2_SIMes>
-2402.13728523

> <DG_referenceProductionBarrier>
0.01468968

> <DG_referencePrecursorStabilityHII>
-0.0052201621

> <DG_referencePrecursorStabilityHI>
0.0117775312

> <DDG_referencePrecursorStability>
.0169976933

> <DG_referenceSynt>
0.0226072217

> <hartree_to_kcalmol>
627.49467516

> <boltzmann_constant>
0.0000000000000000000000138066

> <avogadro_number>
602214000000000000000000

> <jmol_to_kcalmol>
0.00023901

> <temp>
313.15

> <kT>
.6223089948281258706000000000

> <magnitude1>
1.43290809

> <magnitude2>
2.86581618

> <magnitude3>
4.29872427

> <magnitude4>
5.73163236

> <DFT_IDENTIFIER>
1723540448461

> <DFT_MACHINE>
158.39.114.73

> <XTB_IDENTIFIER>
1723539868979

> <XTB_MACHINE>
158.39.114.73

> <DESCRIPTOR_1>
.00045901233514367944

> <DESCRIPTOR_2>
9.166680788212775832

> <DESCRIPTOR_3>
1.512823774869868200

> <WEIGHT_1>
.99999120442043158808

> <WEIGHT_2>
.57731348567807618376

> <WEIGHT_3>
.96052512470245838806

> <WEIGHT_4>
.99999999787375562552

> <FITNESS>
5.92224517061533592263

$$$$
