
  CDK     04202402503D

 65 68  0  0  0  0  0  0  0  0999 V2000
    1.8338    0.2456    1.1746 Ru  0  0  0  0  0  0  0  0  0  0  0  0
    3.3527   -0.9980    0.9733 C   0  0  0  0  0  0  0  0  0  0  0  0
    3.1367   -2.0368    1.2758 H   0  0  0  0  0  0  0  0  0  0  0  0
    3.8645   -0.0802    2.1455 C   0  0  0  0  0  0  0  0  0  0  0  0
    4.0073   -0.7328    3.0255 H   0  0  0  0  0  0  0  0  0  0  0  0
    2.8859    1.0833    2.6065 C   0  0  0  0  0  0  0  0  0  0  0  0
    3.2797    2.0893    2.3797 H   0  0  0  0  0  0  0  0  0  0  0  0
    2.4881    0.9302    3.6252 H   0  0  0  0  0  0  0  0  0  0  0  0
    4.7828    0.4160    1.7834 H   0  0  0  0  0  0  0  0  0  0  0  0
    3.9197   -0.8732    0.0355 H   0  0  0  0  0  0  0  0  0  0  0  0
    1.0016   -1.2857    2.8140 Cl  0  0  0  0  0  0  0  0  0  0  0  0
    2.9651    1.7428   -0.3321 Cl  0  0  0  0  0  0  0  0  0  0  0  0
    0.1638    0.6739    0.2608 C   0  0  0  0  0  0  0  0  0  0  0  0
   -0.6918    1.9468    0.4214 C   0  0  0  0  0  0  0  0  0  0  0  0
   -1.2436    2.0616   -1.0260 C   0  0  0  0  0  0  0  0  0  0  0  0
   -2.1802    2.6431   -1.0908 H   0  0  0  0  0  0  0  0  0  0  0  0
   -0.4784    2.5680   -1.6475 H   0  0  0  0  0  0  0  0  0  0  0  0
   -1.4242    0.6176   -1.5318 C   0  0  0  0  0  0  0  0  0  0  0  0
   -0.2857   -0.0437   -0.7716 N   0  0  0  0  0  0  0  0  0  0  0  0
    0.1289    3.1826    0.8347 C   0  0  0  0  0  0  0  0  0  0  0  0
    0.9821    3.3439    0.1502 H   0  0  0  0  0  0  0  0  0  0  0  0
    0.5300    3.0531    1.8593 H   0  0  0  0  0  0  0  0  0  0  0  0
   -0.5302    4.0732    0.8405 H   0  0  0  0  0  0  0  0  0  0  0  0
   -1.8127    1.7529    1.4611 C   0  0  0  0  0  0  0  0  0  0  0  0
   -1.6825    0.8506    2.5320 C   0  0  0  0  0  0  0  0  0  0  0  0
   -0.7781    0.2323    2.6329 H   0  0  0  0  0  0  0  0  0  0  0  0
   -2.7003    0.7245    3.4910 C   0  0  0  0  0  0  0  0  0  0  0  0
   -2.5735    0.0015    4.3102 H   0  0  0  0  0  0  0  0  0  0  0  0
   -3.8580    1.5094    3.4086 C   0  0  0  0  0  0  0  0  0  0  0  0
   -4.6558    1.4093    4.1588 H   0  0  0  0  0  0  0  0  0  0  0  0
   -3.9834    2.4353    2.3611 C   0  0  0  0  0  0  0  0  0  0  0  0
   -4.8776    3.0720    2.2895 H   0  0  0  0  0  0  0  0  0  0  0  0
   -2.9709    2.5560    1.3995 C   0  0  0  0  0  0  0  0  0  0  0  0
   -3.0911    3.2955    0.5944 H   0  0  0  0  0  0  0  0  0  0  0  0
   -2.7782    0.0065   -1.1391 C   0  0  0  0  0  0  0  0  0  0  0  0
   -3.5887    0.5969   -1.6105 H   0  0  0  0  0  0  0  0  0  0  0  0
   -2.9396    0.0106   -0.0474 H   0  0  0  0  0  0  0  0  0  0  0  0
   -2.8579   -1.0323   -1.5135 H   0  0  0  0  0  0  0  0  0  0  0  0
   -1.2430    0.4991   -3.0443 C   0  0  0  0  0  0  0  0  0  0  0  0
   -2.1325    0.9315   -3.5433 H   0  0  0  0  0  0  0  0  0  0  0  0
   -1.1644   -0.5615   -3.3557 H   0  0  0  0  0  0  0  0  0  0  0  0
   -0.3509    1.0440   -3.3976 H   0  0  0  0  0  0  0  0  0  0  0  0
    0.2943   -1.3511   -1.0421 C   0  0  0  0  0  0  0  0  0  0  0  0
   -0.1856   -2.4691   -0.3010 C   0  0  0  0  0  0  0  0  0  0  0  0
    0.4696   -3.6994   -0.4800 C   0  0  0  0  0  0  0  0  0  0  0  0
    0.1334   -4.5709    0.0954 H   0  0  0  0  0  0  0  0  0  0  0  0
    1.5459   -3.8280   -1.3636 C   0  0  0  0  0  0  0  0  0  0  0  0
    2.0464   -4.8004   -1.4810 H   0  0  0  0  0  0  0  0  0  0  0  0
    1.9864   -2.7236   -2.0957 C   0  0  0  0  0  0  0  0  0  0  0  0
    2.8313   -2.8334   -2.7881 H   0  0  0  0  0  0  0  0  0  0  0  0
    1.3771   -1.4613   -1.9579 C   0  0  0  0  0  0  0  0  0  0  0  0
   -1.3651   -2.3706    0.6454 C   0  0  0  0  0  0  0  0  0  0  0  0
   -2.2945   -2.3445    0.0383 H   0  0  0  0  0  0  0  0  0  0  0  0
   -1.3224   -1.3990    1.1716 H   0  0  0  0  0  0  0  0  0  0  0  0
   -1.4876   -3.4898    1.6794 C   0  0  0  0  0  0  0  0  0  0  0  0
   -1.7032   -4.4740    1.2156 H   0  0  0  0  0  0  0  0  0  0  0  0
   -2.3224   -3.2653    2.3722 H   0  0  0  0  0  0  0  0  0  0  0  0
   -0.5617   -3.5723    2.2807 H   0  0  0  0  0  0  0  0  0  0  0  0
    1.8807   -0.2987   -2.7908 C   0  0  0  0  0  0  0  0  0  0  0  0
    1.6483    0.6497   -2.2709 H   0  0  0  0  0  0  0  0  0  0  0  0
    1.3132   -0.2916   -3.7467 H   0  0  0  0  0  0  0  0  0  0  0  0
    3.3771   -0.3174   -3.1140 C   0  0  0  0  0  0  0  0  0  0  0  0
    3.6654   -1.1672   -3.7650 H   0  0  0  0  0  0  0  0  0  0  0  0
    3.9832   -0.3552   -2.1884 H   0  0  0  0  0  0  0  0  0  0  0  0
    3.6544    0.6136   -3.6458 H   0  0  0  0  0  0  0  0  0  0  0  0
  2  4  1  0  0  0  0
  2  1  1  0  0  0  0
  2  3  1  0  0  0  0
  4  6  1  0  0  0  0
  4  5  1  0  0  0  0
  6  1  1  0  0  0  0
  6  8  1  0  0  0  0
  7  6  1  0  0  0  0
  9  4  1  0  0  0  0
 10  2  1  0  0  0  0
  1 11  1  0  0  0  0
  1 12  1  0  0  0  0
 13 14  1  0  0  0  0
 13 19  1  0  0  0  0
 14 15  1  0  0  0  0
 14 20  1  0  0  0  0
 14 24  1  0  0  0  0
 15 16  1  0  0  0  0
 15 17  1  0  0  0  0
 15 18  1  0  0  0  0
 18 19  1  0  0  0  0
 18 35  1  0  0  0  0
 18 39  1  0  0  0  0
 19 43  1  0  0  0  0
 20 21  1  0  0  0  0
 20 22  1  0  0  0  0
 20 23  1  0  0  0  0
 24 25  1  0  0  0  0
 24 33  2  0  0  0  0
 25 26  1  0  0  0  0
 25 27  2  0  0  0  0
 27 28  1  0  0  0  0
 27 29  1  0  0  0  0
 29 30  1  0  0  0  0
 29 31  2  0  0  0  0
 31 32  1  0  0  0  0
 31 33  1  0  0  0  0
 33 34  1  0  0  0  0
 35 36  1  0  0  0  0
 35 37  1  0  0  0  0
 35 38  1  0  0  0  0
 39 40  1  0  0  0  0
 39 41  1  0  0  0  0
 39 42  1  0  0  0  0
 43 44  1  0  0  0  0
 43 51  2  0  0  0  0
 44 45  2  0  0  0  0
 44 52  1  0  0  0  0
 45 46  1  0  0  0  0
 45 47  1  0  0  0  0
 47 48  1  0  0  0  0
 47 49  2  0  0  0  0
 49 50  1  0  0  0  0
 49 51  1  0  0  0  0
 51 59  1  0  0  0  0
 52 53  1  0  0  0  0
 52 54  1  0  0  0  0
 52 55  1  0  0  0  0
 55 56  1  0  0  0  0
 55 57  1  0  0  0  0
 55 58  1  0  0  0  0
 59 60  1  0  0  0  0
 59 61  1  0  0  0  0
 59 62  1  0  0  0  0
 62 63  1  0  0  0  0
 62 64  1  0  0  0  0
 62 65  1  0  0  0  0
  1 13  1  0  0  0  0
M  END
>  <DFT-ENERGY>
-2080.10814996

$$$$
