
  CDK     08132411133D

 74 78  0  0  0  0  0  0  0  0999 V2000
   -0.2596   -0.4061   -3.9033 H   0  0  0  0  0  0  0  0  0  0  0  0
   -1.4587   -0.5749   -4.1216 C   0  0  0  0  0  0  0  0  0  0  0  0
   -1.2270   -0.8563   -5.1694 H   0  0  0  0  0  0  0  0  0  0  0  0
   -1.9211    0.7860   -3.7504 C   0  0  0  0  0  0  0  0  0  0  0  0
   -2.9434    0.9287   -3.3732 H   0  0  0  0  0  0  0  0  0  0  0  0
   -1.5033    1.6106   -4.3532 H   0  0  0  0  0  0  0  0  0  0  0  0
   -0.6515    0.0573   -2.2366 Ru  0  0  0  0  0  0  0  0  0  0  0  0
   -1.6833   -1.5816   -3.0450 C   0  0  0  0  0  0  0  0  0  0  0  0
   -2.6907   -1.6884   -2.6192 H   0  0  0  0  0  0  0  0  0  0  0  0
   -1.0971   -2.5137   -3.1209 H   0  0  0  0  0  0  0  0  0  0  0  0
   -2.7045    0.1888   -0.9707 Cl  0  0  0  0  0  0  0  0  0  0  0  0
    1.4236    0.8536   -3.2599 Cl  0  0  0  0  0  0  0  0  0  0  0  0
    0.3201    0.5117   -0.5101 C   0  0  0  0  0  0  0  0  0  0  0  0
    1.7359    2.1945    0.8028 C   0  0  0  0  0  0  0  0  0  0  0  0
    2.3941   -0.2375    0.7200 C   0  0  0  0  0  0  0  0  0  0  0  0
    2.1633    0.9828    1.6233 C   0  0  0  0  0  0  0  0  0  0  0  0
    1.0861   -0.4895   -0.0503 N   0  0  0  0  0  0  0  0  0  0  0  0
    0.4062    1.9235    0.0728 C   0  0  0  0  0  0  0  0  0  0  0  0
    2.5202    2.4557    0.0647 H   0  0  0  0  0  0  0  0  0  0  0  0
    1.3997    0.7412    2.3905 H   0  0  0  0  0  0  0  0  0  0  0  0
    1.6251    3.0777    1.4607 H   0  0  0  0  0  0  0  0  0  0  0  0
    3.1069    1.1870    2.1686 H   0  0  0  0  0  0  0  0  0  0  0  0
    0.1392    2.9725   -1.0365 C   0  0  0  0  0  0  0  0  0  0  0  0
   -0.7714    2.0012    1.1130 C   0  0  0  0  0  0  0  0  0  0  0  0
    2.7832   -1.4627    1.5490 C   0  0  0  0  0  0  0  0  0  0  0  0
    2.9278   -2.3602    0.9208 H   0  0  0  0  0  0  0  0  0  0  0  0
    2.0362   -1.7083    2.3237 H   0  0  0  0  0  0  0  0  0  0  0  0
    3.7441   -1.2415    2.0545 H   0  0  0  0  0  0  0  0  0  0  0  0
    3.5323    0.0949   -0.2713 C   0  0  0  0  0  0  0  0  0  0  0  0
    4.3286    0.6407    0.2740 H   0  0  0  0  0  0  0  0  0  0  0  0
    3.1804    0.7235   -1.1103 H   0  0  0  0  0  0  0  0  0  0  0  0
    3.9894   -0.8141   -0.6930 H   0  0  0  0  0  0  0  0  0  0  0  0
    0.6516   -1.8742   -0.3034 C   0  0  0  0  0  0  0  0  0  0  0  0
   -0.1080   -4.5799   -0.5205 C   0  0  0  0  0  0  0  0  0  0  0  0
   -0.4021   -2.3821    0.5230 C   0  0  0  0  0  0  0  0  0  0  0  0
    1.2923   -2.7100   -1.2625 C   0  0  0  0  0  0  0  0  0  0  0  0
    0.8876   -4.0580   -1.3443 C   0  0  0  0  0  0  0  0  0  0  0  0
   -0.7498   -3.7373    0.3908 C   0  0  0  0  0  0  0  0  0  0  0  0
    1.3789   -4.7104   -2.0801 H   0  0  0  0  0  0  0  0  0  0  0  0
   -1.5543   -4.1387    1.0201 H   0  0  0  0  0  0  0  0  0  0  0  0
   -0.3960   -5.6385   -0.5961 H   0  0  0  0  0  0  0  0  0  0  0  0
    2.3858   -2.2709   -2.2286 C   0  0  0  0  0  0  0  0  0  0  0  0
    2.5118   -1.1791   -2.1371 H   0  0  0  0  0  0  0  0  0  0  0  0
   -1.1995   -1.5373    1.5138 C   0  0  0  0  0  0  0  0  0  0  0  0
   -1.2151   -0.5070    1.1185 H   0  0  0  0  0  0  0  0  0  0  0  0
   -2.6700   -1.9768    1.6131 C   0  0  0  0  0  0  0  0  0  0  0  0
   -3.1244   -2.0916    0.6121 H   0  0  0  0  0  0  0  0  0  0  0  0
   -3.2460   -1.1998    2.1541 H   0  0  0  0  0  0  0  0  0  0  0  0
   -2.7865   -2.9242    2.1801 H   0  0  0  0  0  0  0  0  0  0  0  0
   -0.5878   -1.5193    2.9254 C   0  0  0  0  0  0  0  0  0  0  0  0
   -0.4564   -2.5493    3.3178 H   0  0  0  0  0  0  0  0  0  0  0  0
   -1.2593   -0.9751    3.6207 H   0  0  0  0  0  0  0  0  0  0  0  0
    0.3959   -1.0157    2.9593 H   0  0  0  0  0  0  0  0  0  0  0  0
    1.9995   -2.5395   -3.6939 C   0  0  0  0  0  0  0  0  0  0  0  0
    1.0370   -2.0608   -3.9495 H   0  0  0  0  0  0  0  0  0  0  0  0
    1.9163   -3.6245   -3.9092 H   0  0  0  0  0  0  0  0  0  0  0  0
    2.7695   -2.1167   -4.3693 H   0  0  0  0  0  0  0  0  0  0  0  0
    3.7209   -2.9777   -1.9255 C   0  0  0  0  0  0  0  0  0  0  0  0
    4.5268   -2.5761   -2.5733 H   0  0  0  0  0  0  0  0  0  0  0  0
    3.6475   -4.0674   -2.1204 H   0  0  0  0  0  0  0  0  0  0  0  0
    4.0385   -2.8583   -0.8711 H   0  0  0  0  0  0  0  0  0  0  0  0
   -1.6885    1.6167    0.6257 H   0  0  0  0  0  0  0  0  0  0  0  0
   -0.5537    1.3277    1.9656 H   0  0  0  0  0  0  0  0  0  0  0  0
   -1.0328    3.4231    1.6281 C   0  0  0  0  0  0  0  0  0  0  0  0
   -0.1761    3.7872    2.2383 H   0  0  0  0  0  0  0  0  0  0  0  0
   -1.9031    3.3846    2.3162 H   0  0  0  0  0  0  0  0  0  0  0  0
    0.9840    2.9664   -1.7504 H   0  0  0  0  0  0  0  0  0  0  0  0
   -0.7507    2.6333   -1.6153 H   0  0  0  0  0  0  0  0  0  0  0  0
   -0.1182    4.3842   -0.5005 C   0  0  0  0  0  0  0  0  0  0  0  0
   -0.3125    5.0619   -1.3573 H   0  0  0  0  0  0  0  0  0  0  0  0
    0.7938    4.7787    0.0013 H   0  0  0  0  0  0  0  0  0  0  0  0
   -1.2924    4.4032    0.4817 C   0  0  0  0  0  0  0  0  0  0  0  0
   -2.2204    4.1013   -0.0530 H   0  0  0  0  0  0  0  0  0  0  0  0
   -1.4640    5.4269    0.8745 H   0  0  0  0  0  0  0  0  0  0  0  0
  1  2  1  0  0  0  0
  1  7  1  0  0  0  0
  2  3  1  0  0  0  0
  2  4  1  0  0  0  0
  4  5  1  0  0  0  0
  6  4  1  0  0  0  0
  7  8  1  0  0  0  0
  7  4  1  0  0  0  0
  8  2  1  0  0  0  0
  8  9  1  0  0  0  0
 10  8  1  0  0  0  0
  7 11  1  0  0  0  0
  7 12  1  0  0  0  0
 13 17  1  0  0  0  0
 13 18  1  0  0  0  0
 14 19  1  0  0  0  0
 14 21  1  0  0  0  0
 14 16  1  0  0  0  0
 14 18  1  0  0  0  0
 15 17  1  0  0  0  0
 15 16  1  0  0  0  0
 15 25  1  0  0  0  0
 15 29  1  0  0  0  0
 16 20  1  0  0  0  0
 16 22  1  0  0  0  0
 17 33  1  0  0  0  0
 18 23  1  0  0  0  0
 18 24  1  0  0  0  0
 23 67  1  0  0  0  0
 23 68  1  0  0  0  0
 23 69  1  0  0  0  0
 24 62  1  0  0  0  0
 24 63  1  0  0  0  0
 24 64  1  0  0  0  0
 25 26  1  0  0  0  0
 25 27  1  0  0  0  0
 25 28  1  0  0  0  0
 29 30  1  0  0  0  0
 29 31  1  0  0  0  0
 29 32  1  0  0  0  0
 33 36  2  0  0  0  0
 33 35  1  0  0  0  0
 34 37  2  0  0  0  0
 34 38  1  0  0  0  0
 34 41  1  0  0  0  0
 35 38  2  0  0  0  0
 35 44  1  0  0  0  0
 36 37  1  0  0  0  0
 36 42  1  0  0  0  0
 37 39  1  0  0  0  0
 38 40  1  0  0  0  0
 42 43  1  0  0  0  0
 42 54  1  0  0  0  0
 42 58  1  0  0  0  0
 44 45  1  0  0  0  0
 44 46  1  0  0  0  0
 44 50  1  0  0  0  0
 46 47  1  0  0  0  0
 46 48  1  0  0  0  0
 46 49  1  0  0  0  0
 50 51  1  0  0  0  0
 50 52  1  0  0  0  0
 50 53  1  0  0  0  0
 54 55  1  0  0  0  0
 54 56  1  0  0  0  0
 54 57  1  0  0  0  0
 58 59  1  0  0  0  0
 58 60  1  0  0  0  0
 58 61  1  0  0  0  0
 64 65  1  0  0  0  0
 64 66  1  0  0  0  0
 64 72  1  0  0  0  0
 69 70  1  0  0  0  0
 69 71  1  0  0  0  0
 69 72  1  0  0  0  0
 72 73  1  0  0  0  0
 72 74  1  0  0  0  0
  7 13  1  0  0  0  0
M  END
>  <DFT-ENERGY>
-2122.90125584

$$$$
