CAACCyDIPP-5_A2
  CDK     08122411483D

 88 92  0  0  0  0  0  0  0  0999 V2000
    0.7560   -0.5705   -1.2570 Ru  0  0  0  0  0  0  0  0  0  0  0  0
    2.5338   -0.5705   -2.6462 O   0  0  0  0  0  0  0  0  0  0  0  0
    1.9662    0.3628   -0.2529 C   0  0  0  0  0  0  0  0  0  0  0  0
    1.7334    0.6557    0.7698 H   0  0  0  0  0  0  0  0  0  0  0  0
    2.7693   -1.3457   -3.8720 C   0  0  0  0  0  0  0  0  0  0  0  0
    3.1995   -0.6503   -4.6245 H   0  0  0  0  0  0  0  0  0  0  0  0
    1.3503   -1.7684   -4.2201 C   0  0  0  0  0  0  0  0  0  0  0  0
    0.6767   -0.8872   -4.2278 H   0  0  0  0  0  0  0  0  0  0  0  0
    1.2959   -2.2501   -5.1999 H   0  0  0  0  0  0  0  0  0  0  0  0
    0.9502   -2.4751   -3.4659 H   0  0  0  0  0  0  0  0  0  0  0  0
    3.6901   -2.5048   -3.5338 C   0  0  0  0  0  0  0  0  0  0  0  0
    3.6900   -3.2695   -4.3168 H   0  0  0  0  0  0  0  0  0  0  0  0
    4.7243   -2.1870   -3.3650 H   0  0  0  0  0  0  0  0  0  0  0  0
    3.3536   -2.9947   -2.5986 H   0  0  0  0  0  0  0  0  0  0  0  0
    3.5260    0.2279   -2.1412 C   0  0  0  0  0  0  0  0  0  0  0  0
    4.6951    0.5768   -2.7942 C   0  0  0  0  0  0  0  0  0  0  0  0
    4.9143    0.2249   -3.7997 H   0  0  0  0  0  0  0  0  0  0  0  0
    5.5963    1.4078   -2.1367 C   0  0  0  0  0  0  0  0  0  0  0  0
    6.5195    1.6946   -2.6452 H   0  0  0  0  0  0  0  0  0  0  0  0
    5.3463    1.8793   -0.8514 C   0  0  0  0  0  0  0  0  0  0  0  0
    6.0719    2.5228   -0.3567 H   0  0  0  0  0  0  0  0  0  0  0  0
    4.1766    1.5190   -0.2098 C   0  0  0  0  0  0  0  0  0  0  0  0
    3.9834    1.8736    0.8015 H   0  0  0  0  0  0  0  0  0  0  0  0
    3.2411    0.7036   -0.8492 C   0  0  0  0  0  0  0  0  0  0  0  0
    1.3594   -2.7762   -0.6932 Cl  0  0  0  0  0  0  0  0  0  0  0  0
   -0.0837    1.1698   -2.6436 Cl  0  0  0  0  0  0  0  0  0  0  0  0
   -0.9661   -0.3574   -0.2973 C   0  0  0  0  0  0  0  0  0  0  0  0
   -3.4368   -0.7218   -0.8736 C   0  0  0  0  0  0  0  0  0  0  0  0
   -2.8400    1.0085    0.8397 C   0  0  0  0  0  0  0  0  0  0  0  0
   -3.7934   -0.1538    0.4933 C   0  0  0  0  0  0  0  0  0  0  0  0
   -1.3823    0.5625    0.6174 N   0  0  0  0  0  0  0  0  0  0  0  0
   -2.0267   -1.3562   -0.8341 C   0  0  0  0  0  0  0  0  0  0  0  0
   -3.4700    0.0645   -1.6534 H   0  0  0  0  0  0  0  0  0  0  0  0
   -3.7447   -0.9463    1.2670 H   0  0  0  0  0  0  0  0  0  0  0  0
   -4.1885   -1.4761   -1.1807 H   0  0  0  0  0  0  0  0  0  0  0  0
   -4.8405    0.2030    0.5078 H   0  0  0  0  0  0  0  0  0  0  0  0
   -1.6917   -1.8765   -2.2592 C   0  0  0  0  0  0  0  0  0  0  0  0
   -2.0057   -2.5763    0.1328 C   0  0  0  0  0  0  0  0  0  0  0  0
   -3.0788    1.4119    2.3035 C   0  0  0  0  0  0  0  0  0  0  0  0
   -2.4675    2.2716    2.6084 H   0  0  0  0  0  0  0  0  0  0  0  0
   -2.8578    0.5980    3.0041 H   0  0  0  0  0  0  0  0  0  0  0  0
   -4.1256    1.7004    2.4547 H   0  0  0  0  0  0  0  0  0  0  0  0
   -3.1336    2.2033   -0.0835 C   0  0  0  0  0  0  0  0  0  0  0  0
   -4.1779    2.2221   -0.4091 H   0  0  0  0  0  0  0  0  0  0  0  0
   -2.5087    2.1840   -0.9949 H   0  0  0  0  0  0  0  0  0  0  0  0
   -2.9357    3.1663    0.4124 H   0  0  0  0  0  0  0  0  0  0  0  0
   -0.4390    1.2239    1.5274 C   0  0  0  0  0  0  0  0  0  0  0  0
    1.1845    2.4477    3.4658 C   0  0  0  0  0  0  0  0  0  0  0  0
   -0.1002    0.5233    2.7187 C   0  0  0  0  0  0  0  0  0  0  0  0
    0.0565    2.5290    1.3018 C   0  0  0  0  0  0  0  0  0  0  0  0
    0.8603    3.1221    2.2933 C   0  0  0  0  0  0  0  0  0  0  0  0
    0.7156    1.1491    3.6685 C   0  0  0  0  0  0  0  0  0  0  0  0
    1.2399    4.1320    2.1313 H   0  0  0  0  0  0  0  0  0  0  0  0
    0.9904    0.6144    4.5781 H   0  0  0  0  0  0  0  0  0  0  0  0
    1.8069    2.9269    4.2202 H   0  0  0  0  0  0  0  0  0  0  0  0
   -0.1949    3.3375    0.0400 C   0  0  0  0  0  0  0  0  0  0  0  0
   -0.8251    2.7345   -0.6733 H   0  0  0  0  0  0  0  0  0  0  0  0
   -0.5493   -0.9062    2.9826 C   0  0  0  0  0  0  0  0  0  0  0  0
   -1.4002   -1.1789    2.2981 H   0  0  0  0  0  0  0  0  0  0  0  0
    0.6183   -1.8469    2.6679 C   0  0  0  0  0  0  0  0  0  0  0  0
    0.9839   -1.6890    1.6353 H   0  0  0  0  0  0  0  0  0  0  0  0
    0.3239   -2.8991    2.7406 H   0  0  0  0  0  0  0  0  0  0  0  0
    1.4703   -1.6948    3.3374 H   0  0  0  0  0  0  0  0  0  0  0  0
   -1.0549   -1.0938    4.4191 C   0  0  0  0  0  0  0  0  0  0  0  0
   -0.2482   -0.9968    5.1551 H   0  0  0  0  0  0  0  0  0  0  0  0
   -1.4869   -2.0922    4.5516 H   0  0  0  0  0  0  0  0  0  0  0  0
   -1.8234   -0.3569    4.6755 H   0  0  0  0  0  0  0  0  0  0  0  0
    1.1203    3.6423   -0.6867 C   0  0  0  0  0  0  0  0  0  0  0  0
    1.5834    2.7110   -1.0537 H   0  0  0  0  0  0  0  0  0  0  0  0
    1.8472    4.1639   -0.0608 H   0  0  0  0  0  0  0  0  0  0  0  0
    0.9384    4.2560   -1.5774 H   0  0  0  0  0  0  0  0  0  0  0  0
   -0.9440    4.6358    0.3774 C   0  0  0  0  0  0  0  0  0  0  0  0
   -1.1439    5.2140   -0.5323 H   0  0  0  0  0  0  0  0  0  0  0  0
   -0.3715    5.2805    1.0515 H   0  0  0  0  0  0  0  0  0  0  0  0
   -1.9108    4.4218    0.8551 H   0  0  0  0  0  0  0  0  0  0  0  0
   -0.9740   -2.9922    0.1713 H   0  0  0  0  0  0  0  0  0  0  0  0
   -2.2332   -2.2465    1.1677 H   0  0  0  0  0  0  0  0  0  0  0  0
   -2.9796   -3.6795   -0.3019 C   0  0  0  0  0  0  0  0  0  0  0  0
   -4.0237   -3.3289   -0.1923 H   0  0  0  0  0  0  0  0  0  0  0  0
   -2.8749   -4.5476    0.3771 H   0  0  0  0  0  0  0  0  0  0  0  0
   -1.6504   -1.0312   -2.9777 H   0  0  0  0  0  0  0  0  0  0  0  0
   -0.7024   -2.4044   -2.2925 H   0  0  0  0  0  0  0  0  0  0  0  0
   -2.7134   -2.9345   -2.7195 C   0  0  0  0  0  0  0  0  0  0  0  0
   -2.4535   -3.2797   -3.7378 H   0  0  0  0  0  0  0  0  0  0  0  0
   -3.7245   -2.4923   -2.7984 H   0  0  0  0  0  0  0  0  0  0  0  0
   -2.7292   -4.1261   -1.7500 C   0  0  0  0  0  0  0  0  0  0  0  0
   -1.7588   -4.6601   -1.8057 H   0  0  0  0  0  0  0  0  0  0  0  0
   -3.4998   -4.8556   -2.0587 H   0  0  0  0  0  0  0  0  0  0  0  0
  2  1  1  0  0  0  0
  3  1  2  0  0  0  0
  4  3  1  0  0  0  0
  5  2  1  0  0  0  0
  6  5  1  0  0  0  0
  7  5  1  0  0  0  0
  8  7  1  0  0  0  0
  9  7  1  0  0  0  0
 10  7  1  0  0  0  0
 11  5  1  0  0  0  0
 12 11  1  0  0  0  0
 13 11  1  0  0  0  0
 14 11  1  0  0  0  0
 15  2  1  0  0  0  0
 15 24  1  0  0  0  0
 16 15  2  0  0  0  0
 17 16  1  0  0  0  0
 18 16  1  0  0  0  0
 19 18  1  0  0  0  0
 20 18  2  0  0  0  0
 21 20  1  0  0  0  0
 22 20  1  0  0  0  0
 22 24  2  0  0  0  0
 23 22  1  0  0  0  0
 24  3  1  0  0  0  0
  1 25  1  0  0  0  0
  1 26  1  0  0  0  0
 27 31  1  0  0  0  0
 27 32  1  0  0  0  0
 28 33  1  0  0  0  0
 28 35  1  0  0  0  0
 28 30  1  0  0  0  0
 28 32  1  0  0  0  0
 29 31  1  0  0  0  0
 29 30  1  0  0  0  0
 29 39  1  0  0  0  0
 29 43  1  0  0  0  0
 30 34  1  0  0  0  0
 30 36  1  0  0  0  0
 31 47  1  0  0  0  0
 32 37  1  0  0  0  0
 32 38  1  0  0  0  0
 37 81  1  0  0  0  0
 37 82  1  0  0  0  0
 37 83  1  0  0  0  0
 38 76  1  0  0  0  0
 38 77  1  0  0  0  0
 38 78  1  0  0  0  0
 39 40  1  0  0  0  0
 39 41  1  0  0  0  0
 39 42  1  0  0  0  0
 43 44  1  0  0  0  0
 43 45  1  0  0  0  0
 43 46  1  0  0  0  0
 47 50  2  0  0  0  0
 47 49  1  0  0  0  0
 48 51  2  0  0  0  0
 48 52  1  0  0  0  0
 48 55  1  0  0  0  0
 49 52  2  0  0  0  0
 49 58  1  0  0  0  0
 50 51  1  0  0  0  0
 50 56  1  0  0  0  0
 51 53  1  0  0  0  0
 52 54  1  0  0  0  0
 56 57  1  0  0  0  0
 56 68  1  0  0  0  0
 56 72  1  0  0  0  0
 58 59  1  0  0  0  0
 58 60  1  0  0  0  0
 58 64  1  0  0  0  0
 60 61  1  0  0  0  0
 60 62  1  0  0  0  0
 60 63  1  0  0  0  0
 64 65  1  0  0  0  0
 64 66  1  0  0  0  0
 64 67  1  0  0  0  0
 68 69  1  0  0  0  0
 68 70  1  0  0  0  0
 68 71  1  0  0  0  0
 72 73  1  0  0  0  0
 72 74  1  0  0  0  0
 72 75  1  0  0  0  0
 78 79  1  0  0  0  0
 78 80  1  0  0  0  0
 78 86  1  0  0  0  0
 83 84  1  0  0  0  0
 83 85  1  0  0  0  0
 83 86  1  0  0  0  0
 86 87  1  0  0  0  0
 86 88  1  0  0  0  0
  1 27  1  0  0  0  0
M  END
> <FrozenCore-PM6_ENERGY>
-168.377

> <RMSD_CONF_CG-CS>
0.938778

> <RMSD_CONF_GO-CS>
0.000000

> <UID>


> <DESCRIPTOR_DEFINITION_1>
desc1=( echo "1 * ( e( $hartree_to_kcalmol * ( ( $freeEnergyZ - $freeEnergyD ) - ( $freeEnergyX + 2*$G_Ethene - $freeEnergyD - 2*$G_Propene ) - $DDG_reference_HGII ) / $kT ) ) " | bc -l )

> <DESCRIPTOR_DEFINITION_2>
desc1=( echo "1 * ( e( $hartree_to_kcalmol * ( ( $freeEnergyZ - $freeEnergyD ) - ( $freeEnergyX + 2*$G_Ethene - $freeEnergyD - 2*$G_Propene ) - $DDG_reference_HGII ) / $kT ) ) " | bc -l )

> <DESCRIPTOR_DEFINITION_3>
desc1=( echo "1 * ( e( $hartree_to_kcalmol * ( ( $freeEnergyZ - $freeEnergyD ) - ( $freeEnergyX + 2*$G_Ethene - $freeEnergyD - 2*$G_Propene ) - $DDG_reference_HGII ) / $kT ) ) " | bc -l )

> <WEIGHT_DEFINITION_1>
w1=$( echo "1 / ( 1 + e( $hartree_to_kcalmol * ( ( ( $freeEnergyX + 2*$G_Ethene - $freeEnergyD - 2*$G_Propene ) ) - ( $DG_referenceProductionBarrier + $magnitude4 ) ) / $kT ) )" | bc -l )

> <WEIGHT_DEFINITION_2>
w1=$( echo "1 / ( 1 + e( $hartree_to_kcalmol * ( ( ( $freeEnergyX + 2*$G_Ethene - $freeEnergyD - 2*$G_Propene ) ) - ( $DG_referenceProductionBarrier + $magnitude4 ) ) / $kT ) )" | bc -l )

> <WEIGHT_DEFINITION_3>
w1=$( echo "1 / ( 1 + e( $hartree_to_kcalmol * ( ( ( $freeEnergyX + 2*$G_Ethene - $freeEnergyD - 2*$G_Propene ) ) - ( $DG_referenceProductionBarrier + $magnitude4 ) ) / $kT ) )" | bc -l )

> <WEIGHT_DEFINITION_4>
w1=$( echo "1 / ( 1 + e( $hartree_to_kcalmol * ( ( ( $freeEnergyX + 2*$G_Ethene - $freeEnergyD - 2*$G_Propene ) ) - ( $DG_referenceProductionBarrier + $magnitude4 ) ) / $kT ) )" | bc -l )

> <CALCULATION_OF_OVERALL_FITNESS>
fitness=$( echo "( $desc1 + $desc2 + $desc3 ) * ( $w1 * $w2 * $w3 * $w4 )" | bc -l )

> <freeEnergyA>
-2468.18472562

> <freeEnergyF>
-2468.16125599

> <freeEnergyE>
-2468.18472562

> <freeEnergyC>
-2122.92582155

> <freeEnergyL>
-990.316552769

> <freeEnergyX>
-2201.44837604

> <freeEnergyZ>
-2122.90125506

> <freeEnergyD>
-2122.94947311

> <G_Propene>
-117.738020895

> <G_Ethene>
-78.4716324751

> <G_HoveydaProd>
-502.204109499

> <G_SIMes>
-924.27249048

> <G_HG_RuCl2_SIMes>
-2402.13728523

> <DG_referenceProductionBarrier>
0.01468968

> <DG_referencePrecursorStabilityHII>
-0.0052201621

> <DG_referencePrecursorStabilityHI>
0.0117775312

> <DDG_referencePrecursorStability>
.0169976933

> <DG_referenceSynt>
0.0226072217

> <hartree_to_kcalmol>
627.49467516

> <boltzmann_constant>
0.0000000000000000000000138066

> <avogadro_number>
602214000000000000000000

> <jmol_to_kcalmol>
0.00023901

> <temp>
313.15

> <kT>
.6223089948281258706000000000

> <magnitude1>
1.43290809

> <magnitude2>
2.86581618

> <magnitude3>
4.29872427

> <magnitude4>
5.73163236

> <DFT_IDENTIFIER>
1723639539790

> <DFT_MACHINE>
158.39.114.73

> <XTB_IDENTIFIER>
NREC

> <XTB_MACHINE>
NREC

> <DESCRIPTOR_1>
.00035164958424117870

> <DESCRIPTOR_2>
9.000871595248497432

> <DESCRIPTOR_3>
0.0000000001

> <WEIGHT_1>
.07663996551711470524

> <WEIGHT_2>
.99999990166528498367

> <WEIGHT_3>
.99999999999958247114

> <WEIGHT_4>
.99999999472384312033

> <FITNESS>
.68985336762689243773

$$$$
