
  CDK     08132402583D

 80 83  0  0  0  0  0  0  0  0999 V2000
   -1.2777   -3.9203   -2.5265 C   0  0  0  0  0  0  0  0  0  0  0  0
   -0.2356   -3.9281   -2.8904 H   0  0  0  0  0  0  0  0  0  0  0  0
   -1.7704   -4.8815   -2.7949 H   0  0  0  0  0  0  0  0  0  0  0  0
   -1.8247   -3.1199   -3.0641 H   0  0  0  0  0  0  0  0  0  0  0  0
   -1.3550   -3.7463   -1.0271 C   0  0  0  0  0  0  0  0  0  0  0  0
   -2.3760   -3.7236   -0.6028 H   0  0  0  0  0  0  0  0  0  0  0  0
   -0.3632   -4.2529   -0.1438 C   0  0  0  0  0  0  0  0  0  0  0  0
    0.6005   -4.5273   -0.6083 H   0  0  0  0  0  0  0  0  0  0  0  0
   -0.7498   -4.9454    1.1412 C   0  0  0  0  0  0  0  0  0  0  0  0
    0.1082   -5.0845    1.8254 H   0  0  0  0  0  0  0  0  0  0  0  0
   -1.1458   -5.9534    0.8901 H   0  0  0  0  0  0  0  0  0  0  0  0
   -1.5497   -4.3814    1.6604 H   0  0  0  0  0  0  0  0  0  0  0  0
    0.6814   -2.4775    0.9252 C   0  0  0  0  0  0  0  0  0  0  0  0
    0.3545   -2.6341    1.9748 H   0  0  0  0  0  0  0  0  0  0  0  0
    1.7410   -2.7096    0.6860 H   0  0  0  0  0  0  0  0  0  0  0  0
   -0.4935   -1.8162   -0.3255 Ru  0  0  0  0  0  0  0  0  0  0  0  0
   -2.3388   -1.8759    1.2245 Cl  0  0  0  0  0  0  0  0  0  0  0  0
    1.2788   -2.0399   -1.9453 Cl  0  0  0  0  0  0  0  0  0  0  0  0
   -0.4002    0.1528   -0.4981 C   0  0  0  0  0  0  0  0  0  0  0  0
   -1.7601    2.1812   -1.3957 C   0  0  0  0  0  0  0  0  0  0  0  0
    0.3292    2.5130   -0.0160 C   0  0  0  0  0  0  0  0  0  0  0  0
   -1.1703    2.8237   -0.1442 C   0  0  0  0  0  0  0  0  0  0  0  0
    0.3943    0.9947    0.1924 N   0  0  0  0  0  0  0  0  0  0  0  0
   -1.3408    0.6916   -1.6009 C   0  0  0  0  0  0  0  0  0  0  0  0
   -1.4612    2.7735   -2.2832 H   0  0  0  0  0  0  0  0  0  0  0  0
   -1.6811    2.4507    0.7663 H   0  0  0  0  0  0  0  0  0  0  0  0
   -2.8646    2.2508   -1.3487 H   0  0  0  0  0  0  0  0  0  0  0  0
   -1.3163    3.9230   -0.1743 H   0  0  0  0  0  0  0  0  0  0  0  0
   -0.6822    0.4736   -3.0047 C   0  0  0  0  0  0  0  0  0  0  0  0
   -2.6041   -0.2199   -1.5814 C   0  0  0  0  0  0  0  0  0  0  0  0
    0.9508    3.2716    1.1638 C   0  0  0  0  0  0  0  0  0  0  0  0
    2.0309    3.0599    1.2651 H   0  0  0  0  0  0  0  0  0  0  0  0
    0.4732    3.0473    2.1292 H   0  0  0  0  0  0  0  0  0  0  0  0
    0.8322    4.3549    0.9632 H   0  0  0  0  0  0  0  0  0  0  0  0
    1.0939    2.9535   -1.2769 C   0  0  0  0  0  0  0  0  0  0  0  0
    0.8933    4.0298   -1.4528 H   0  0  0  0  0  0  0  0  0  0  0  0
    0.7948    2.4040   -2.1818 H   0  0  0  0  0  0  0  0  0  0  0  0
    2.1819    2.8327   -1.1486 H   0  0  0  0  0  0  0  0  0  0  0  0
    1.2317    0.5344    1.3005 C   0  0  0  0  0  0  0  0  0  0  0  0
    2.9149   -0.0339    3.4824 C   0  0  0  0  0  0  0  0  0  0  0  0
    0.6693    0.4318    2.6094 C   0  0  0  0  0  0  0  0  0  0  0  0
    2.6201    0.3189    1.0792 C   0  0  0  0  0  0  0  0  0  0  0  0
    3.4356    0.0272    2.1899 C   0  0  0  0  0  0  0  0  0  0  0  0
    1.5460    0.1598    3.6774 C   0  0  0  0  0  0  0  0  0  0  0  0
    4.5094   -0.1424    2.0285 H   0  0  0  0  0  0  0  0  0  0  0  0
    1.1331    0.0902    4.6927 H   0  0  0  0  0  0  0  0  0  0  0  0
    3.5731   -0.2424    4.3385 H   0  0  0  0  0  0  0  0  0  0  0  0
    3.3063    0.4153   -0.2793 C   0  0  0  0  0  0  0  0  0  0  0  0
    2.5231    0.5155   -1.0554 H   0  0  0  0  0  0  0  0  0  0  0  0
   -0.8188    0.5483    2.9487 C   0  0  0  0  0  0  0  0  0  0  0  0
   -1.3971    0.3945    2.0172 H   0  0  0  0  0  0  0  0  0  0  0  0
   -1.2452   -0.5638    3.9289 C   0  0  0  0  0  0  0  0  0  0  0  0
   -0.8772   -1.5561    3.6125 H   0  0  0  0  0  0  0  0  0  0  0  0
   -2.3501   -0.6223    3.9627 H   0  0  0  0  0  0  0  0  0  0  0  0
   -0.8856   -0.3575    4.9587 H   0  0  0  0  0  0  0  0  0  0  0  0
   -1.2182    1.8974    3.5818 C   0  0  0  0  0  0  0  0  0  0  0  0
   -0.5505    2.1533    4.4311 H   0  0  0  0  0  0  0  0  0  0  0  0
   -2.2513    1.8265    3.9784 H   0  0  0  0  0  0  0  0  0  0  0  0
   -1.2045    2.7445    2.8715 H   0  0  0  0  0  0  0  0  0  0  0  0
    4.1163   -0.8520   -0.6052 C   0  0  0  0  0  0  0  0  0  0  0  0
    3.4801   -1.7543   -0.5757 H   0  0  0  0  0  0  0  0  0  0  0  0
    4.9705   -0.9781    0.0918 H   0  0  0  0  0  0  0  0  0  0  0  0
    4.5314   -0.7772   -1.6306 H   0  0  0  0  0  0  0  0  0  0  0  0
    4.2522    1.6329   -0.3278 C   0  0  0  0  0  0  0  0  0  0  0  0
    4.6572    1.7707   -1.3512 H   0  0  0  0  0  0  0  0  0  0  0  0
    5.1139    1.4840    0.3552 H   0  0  0  0  0  0  0  0  0  0  0  0
    3.7605    2.5771   -0.0218 H   0  0  0  0  0  0  0  0  0  0  0  0
   -2.2776   -1.2909   -1.6525 H   0  0  0  0  0  0  0  0  0  0  0  0
   -3.1165   -0.1419   -0.6046 H   0  0  0  0  0  0  0  0  0  0  0  0
   -3.5715    0.0237   -2.7452 C   0  0  0  0  0  0  0  0  0  0  0  0
   -4.0073    1.0437   -2.6584 H   0  0  0  0  0  0  0  0  0  0  0  0
   -4.4248   -0.6798   -2.6563 H   0  0  0  0  0  0  0  0  0  0  0  0
    0.2425    1.0712   -3.1080 H   0  0  0  0  0  0  0  0  0  0  0  0
   -0.3443   -0.5795   -3.0682 H   0  0  0  0  0  0  0  0  0  0  0  0
   -1.6379    0.7727   -4.1652 C   0  0  0  0  0  0  0  0  0  0  0  0
   -1.0950    0.6175   -5.1205 H   0  0  0  0  0  0  0  0  0  0  0  0
   -1.9484    1.8418   -4.1581 H   0  0  0  0  0  0  0  0  0  0  0  0
   -2.8798   -0.1208   -4.1030 C   0  0  0  0  0  0  0  0  0  0  0  0
   -2.5688   -1.1805   -4.2455 H   0  0  0  0  0  0  0  0  0  0  0  0
   -3.5825    0.1170   -4.9282 H   0  0  0  0  0  0  0  0  0  0  0  0
  1  2  1  0  0  0  0
  1  5  1  0  0  0  0
  3  1  1  0  0  0  0
  4  1  1  0  0  0  0
  5  6  1  0  0  0  0
  5 16  1  0  0  0  0
  5  7  1  0  0  0  0
  7  9  1  0  0  0  0
  7  8  1  0  0  0  0
  9 10  1  0  0  0  0
 11  9  1  0  0  0  0
 12  9  1  0  0  0  0
 13 14  1  0  0  0  0
 13 15  1  0  0  0  0
 13  7  1  0  0  0  0
 16 13  1  0  0  0  0
 16 17  1  0  0  0  0
 16 18  1  0  0  0  0
 19 23  1  0  0  0  0
 19 24  1  0  0  0  0
 20 25  1  0  0  0  0
 20 27  1  0  0  0  0
 20 22  1  0  0  0  0
 20 24  1  0  0  0  0
 21 23  1  0  0  0  0
 21 22  1  0  0  0  0
 21 31  1  0  0  0  0
 21 35  1  0  0  0  0
 22 26  1  0  0  0  0
 22 28  1  0  0  0  0
 23 39  1  0  0  0  0
 24 29  1  0  0  0  0
 24 30  1  0  0  0  0
 29 73  1  0  0  0  0
 29 74  1  0  0  0  0
 29 75  1  0  0  0  0
 30 68  1  0  0  0  0
 30 69  1  0  0  0  0
 30 70  1  0  0  0  0
 31 32  1  0  0  0  0
 31 33  1  0  0  0  0
 31 34  1  0  0  0  0
 35 36  1  0  0  0  0
 35 37  1  0  0  0  0
 35 38  1  0  0  0  0
 39 42  2  0  0  0  0
 39 41  1  0  0  0  0
 40 43  2  0  0  0  0
 40 44  1  0  0  0  0
 40 47  1  0  0  0  0
 41 44  2  0  0  0  0
 41 50  1  0  0  0  0
 42 43  1  0  0  0  0
 42 48  1  0  0  0  0
 43 45  1  0  0  0  0
 44 46  1  0  0  0  0
 48 49  1  0  0  0  0
 48 60  1  0  0  0  0
 48 64  1  0  0  0  0
 50 51  1  0  0  0  0
 50 52  1  0  0  0  0
 50 56  1  0  0  0  0
 52 53  1  0  0  0  0
 52 54  1  0  0  0  0
 52 55  1  0  0  0  0
 56 57  1  0  0  0  0
 56 58  1  0  0  0  0
 56 59  1  0  0  0  0
 60 61  1  0  0  0  0
 60 62  1  0  0  0  0
 60 63  1  0  0  0  0
 64 65  1  0  0  0  0
 64 66  1  0  0  0  0
 64 67  1  0  0  0  0
 70 71  1  0  0  0  0
 70 72  1  0  0  0  0
 70 78  1  0  0  0  0
 75 76  1  0  0  0  0
 75 77  1  0  0  0  0
 75 78  1  0  0  0  0
 78 79  1  0  0  0  0
 78 80  1  0  0  0  0
 16 19  1  0  0  0  0
M  END
>  <DFT-ENERGY>
-2201.44837635

$$$$
