IQODAU_A2
  CDK     04192409583D

 75 79  0  0  0  0  0  0  0  0999 V2000
   -0.5954    0.5563    0.1164 Ru  0  0  0  0  0  0  0  0  0  0  0  0
   -2.3732    1.9455    0.1164 O   0  0  0  0  0  0  0  0  0  0  0  0
   -1.8056   -0.4478   -0.8169 C   0  0  0  0  0  0  0  0  0  0  0  0
   -1.5728   -1.4705   -1.1098 H   0  0  0  0  0  0  0  0  0  0  0  0
   -2.6087    3.1713    0.8916 C   0  0  0  0  0  0  0  0  0  0  0  0
   -3.0193    3.9298    0.1923 H   0  0  0  0  0  0  0  0  0  0  0  0
   -1.1861    3.4877    1.3308 C   0  0  0  0  0  0  0  0  0  0  0  0
   -1.1134    4.4572    1.8287 H   0  0  0  0  0  0  0  0  0  0  0  0
   -0.7980    2.7152    2.0263 H   0  0  0  0  0  0  0  0  0  0  0  0
   -0.4992    3.4926    0.4586 H   0  0  0  0  0  0  0  0  0  0  0  0
   -3.5458    2.8375    2.0386 C   0  0  0  0  0  0  0  0  0  0  0  0
   -3.5381    3.6134    2.8104 H   0  0  0  0  0  0  0  0  0  0  0  0
   -4.5797    2.6882    1.7113 H   0  0  0  0  0  0  0  0  0  0  0  0
   -3.2257    1.8928    2.5217 H   0  0  0  0  0  0  0  0  0  0  0  0
   -3.3654    1.4405   -0.6820 C   0  0  0  0  0  0  0  0  0  0  0  0
   -4.5345    2.0935   -1.0307 C   0  0  0  0  0  0  0  0  0  0  0  0
   -4.7532    3.0995   -0.6804 H   0  0  0  0  0  0  0  0  0  0  0  0
   -5.4357    1.4360   -1.8618 C   0  0  0  0  0  0  0  0  0  0  0  0
   -6.3581    1.9448   -2.1494 H   0  0  0  0  0  0  0  0  0  0  0  0
   -5.1857    0.1507   -2.3334 C   0  0  0  0  0  0  0  0  0  0  0  0
   -5.9104   -0.3434   -2.9781 H   0  0  0  0  0  0  0  0  0  0  0  0
   -4.0160   -0.4909   -1.9731 C   0  0  0  0  0  0  0  0  0  0  0  0
   -3.8228   -1.5022   -2.3277 H   0  0  0  0  0  0  0  0  0  0  0  0
   -3.0805    0.1485   -1.1577 C   0  0  0  0  0  0  0  0  0  0  0  0
   -1.1927   -0.0018    2.2998 Cl  0  0  0  0  0  0  0  0  0  0  0  0
    0.2304    1.9199   -1.5951 Cl  0  0  0  0  0  0  0  0  0  0  0  0
    2.1935   -0.1299    0.7484 N   0  0  0  0  0  0  0  0  0  0  0  0
    1.2901   -1.8472   -0.3406 N   0  0  0  0  0  0  0  0  0  0  0  0
    1.0134   -0.5744    0.1444 C   0  0  0  0  0  0  0  0  0  0  0  0
    3.3199   -1.1257    0.6911 C   0  0  0  0  0  0  0  0  0  0  0  0
    3.6460   -1.3930    1.7162 H   0  0  0  0  0  0  0  0  0  0  0  0
    4.1901   -0.6892    0.1612 H   0  0  0  0  0  0  0  0  0  0  0  0
    2.6963   -2.3133   -0.0646 C   0  0  0  0  0  0  0  0  0  0  0  0
    3.2180   -2.5365   -1.0163 H   0  0  0  0  0  0  0  0  0  0  0  0
    2.6797   -3.2428    0.5382 H   0  0  0  0  0  0  0  0  0  0  0  0
    2.4612    1.1287    1.3991 C   0  0  0  0  0  0  0  0  0  0  0  0
    2.2601    1.2563    2.7950 C   0  0  0  0  0  0  0  0  0  0  0  0
    2.6156    2.4564    3.4286 C   0  0  0  0  0  0  0  0  0  0  0  0
    2.4551    2.5580    4.4997 H   0  0  0  0  0  0  0  0  0  0  0  0
    3.1713    3.5162    2.7025 C   0  0  0  0  0  0  0  0  0  0  0  0
    3.3738    3.3791    1.3223 C   0  0  0  0  0  0  0  0  0  0  0  0
    3.8029    4.2028    0.7554 H   0  0  0  0  0  0  0  0  0  0  0  0
    3.0289    2.1954    0.6568 C   0  0  0  0  0  0  0  0  0  0  0  0
    1.6938    0.1545    3.6256 C   0  0  0  0  0  0  0  0  0  0  0  0
    2.4152   -0.2054    4.3689 H   0  0  0  0  0  0  0  0  0  0  0  0
    1.3530   -0.7098    3.0345 H   0  0  0  0  0  0  0  0  0  0  0  0
    0.7946    0.4952    4.1697 H   0  0  0  0  0  0  0  0  0  0  0  0
    3.5540    4.7897    3.3844 C   0  0  0  0  0  0  0  0  0  0  0  0
    3.3810    4.7624    4.4679 H   0  0  0  0  0  0  0  0  0  0  0  0
    2.9796    5.6392    2.9866 H   0  0  0  0  0  0  0  0  0  0  0  0
    4.6184    5.0198    3.2322 H   0  0  0  0  0  0  0  0  0  0  0  0
    3.2880    2.1005   -0.8091 C   0  0  0  0  0  0  0  0  0  0  0  0
    2.8659    1.1942   -1.2703 H   0  0  0  0  0  0  0  0  0  0  0  0
    4.3606    2.1314   -1.0344 H   0  0  0  0  0  0  0  0  0  0  0  0
    2.8077    2.9381   -1.3465 H   0  0  0  0  0  0  0  0  0  0  0  0
    0.4382   -2.7594   -1.0563 C   0  0  0  0  0  0  0  0  0  0  0  0
   -0.3045   -3.7311   -0.3422 C   0  0  0  0  0  0  0  0  0  0  0  0
   -1.0154   -4.6984   -1.0612 C   0  0  0  0  0  0  0  0  0  0  0  0
   -1.5771   -5.4605   -0.5251 H   0  0  0  0  0  0  0  0  0  0  0  0
   -1.0207   -4.6899   -2.4645 C   0  0  0  0  0  0  0  0  0  0  0  0
   -0.3394   -3.6811   -3.1594 C   0  0  0  0  0  0  0  0  0  0  0  0
   -0.3752   -3.6531   -4.2464 H   0  0  0  0  0  0  0  0  0  0  0  0
    0.3823   -2.6990   -2.4693 C   0  0  0  0  0  0  0  0  0  0  0  0
   -0.3626   -3.6914    1.1473 C   0  0  0  0  0  0  0  0  0  0  0  0
    0.6103   -3.9125    1.6048 H   0  0  0  0  0  0  0  0  0  0  0  0
   -1.0930   -4.3938    1.5677 H   0  0  0  0  0  0  0  0  0  0  0  0
   -0.6567   -2.6784    1.4991 H   0  0  0  0  0  0  0  0  0  0  0  0
   -1.7742   -5.7455   -3.2061 C   0  0  0  0  0  0  0  0  0  0  0  0
   -2.8548   -5.6688   -3.0138 H   0  0  0  0  0  0  0  0  0  0  0  0
   -1.4621   -6.7536   -2.8970 H   0  0  0  0  0  0  0  0  0  0  0  0
   -1.6359   -5.6851   -4.2935 H   0  0  0  0  0  0  0  0  0  0  0  0
    1.0410   -1.5796   -3.2017 C   0  0  0  0  0  0  0  0  0  0  0  0
    0.7155   -0.5982   -2.7901 H   0  0  0  0  0  0  0  0  0  0  0  0
    0.8016   -1.5653   -4.2722 H   0  0  0  0  0  0  0  0  0  0  0  0
    2.1342   -1.6108   -3.1073 H   0  0  0  0  0  0  0  0  0  0  0  0
  2  1  1  0  0  0  0
  3  1  2  0  0  0  0
  4  3  1  0  0  0  0
  5  2  1  0  0  0  0
  6  5  1  0  0  0  0
  7  5  1  0  0  0  0
  8  7  1  0  0  0  0
  9  7  1  0  0  0  0
 10  7  1  0  0  0  0
 11  5  1  0  0  0  0
 12 11  1  0  0  0  0
 13 11  1  0  0  0  0
 14 11  1  0  0  0  0
 15  2  1  0  0  0  0
 15 24  1  0  0  0  0
 16 15  2  0  0  0  0
 17 16  1  0  0  0  0
 18 16  1  0  0  0  0
 19 18  1  0  0  0  0
 20 18  2  0  0  0  0
 21 20  1  0  0  0  0
 22 20  1  0  0  0  0
 22 24  2  0  0  0  0
 23 22  1  0  0  0  0
 24  3  1  0  0  0  0
  1 25  1  0  0  0  0
  1 26  1  0  0  0  0
 27 29  1  0  0  0  0
 27 30  1  0  0  0  0
 27 36  1  0  0  0  0
 28 29  1  0  0  0  0
 28 33  1  0  0  0  0
 28 56  1  0  0  0  0
 30 31  1  0  0  0  0
 30 32  1  0  0  0  0
 30 33  1  0  0  0  0
 33 34  1  0  0  0  0
 33 35  1  0  0  0  0
 36 37  1  0  0  0  0
 36 43  2  0  0  0  0
 37 38  2  0  0  0  0
 37 44  1  0  0  0  0
 38 39  1  0  0  0  0
 38 40  1  0  0  0  0
 40 41  2  0  0  0  0
 40 48  1  0  0  0  0
 41 42  1  0  0  0  0
 41 43  1  0  0  0  0
 43 52  1  0  0  0  0
 44 45  1  0  0  0  0
 44 46  1  0  0  0  0
 44 47  1  0  0  0  0
 48 49  1  0  0  0  0
 48 50  1  0  0  0  0
 48 51  1  0  0  0  0
 52 53  1  0  0  0  0
 52 54  1  0  0  0  0
 52 55  1  0  0  0  0
 56 57  1  0  0  0  0
 56 63  2  0  0  0  0
 57 58  2  0  0  0  0
 57 64  1  0  0  0  0
 58 59  1  0  0  0  0
 58 60  1  0  0  0  0
 60 61  2  0  0  0  0
 60 68  1  0  0  0  0
 61 62  1  0  0  0  0
 61 63  1  0  0  0  0
 63 72  1  0  0  0  0
 64 65  1  0  0  0  0
 64 66  1  0  0  0  0
 64 67  1  0  0  0  0
 68 69  1  0  0  0  0
 68 70  1  0  0  0  0
 68 71  1  0  0  0  0
 72 73  1  0  0  0  0
 72 74  1  0  0  0  0
 72 75  1  0  0  0  0
  1 29  1  0  0  0  0
M  END
> <FrozenCore-PM6_ENERGY>
9.222

> <RMSD_CONF_CG-CS>
0.559274

> <RMSD_CONF_GO-CS>
0.000000

> <UID>


> <freeEnergyA>
-2402.13798299

> <freeEnergyF>
-2402.12247008

> <freeEnergyE>
-2402.13798299

> <freeEnergyC>
-2056.88241884

> <freeEnergyL>
-924.272458248

> <freeEnergyX>
-2135.41523584

> <freeEnergyZ>
-2056.86024296

> <freeEnergyD>
-2056.9047522

> <G_Propene>
-117.738020895

> <G_Ethene>
-78.4716324751

> <G_HoveydaProd>
-502.204109499

> <G_SIMes>
-924.27249048

> <G_HG_RuCl2_SIMes>
-2402.13728523

> <DG_referenceProductionBarrier>
0.01468968

> <DG_referencePrecursorStabilityHII>
-0.0052201621

> <DG_referencePrecursorStabilityHI>
0.0117775312

> <DDG_referencePrecursorStability>
.0169976933

> <DG_referenceSynt>
0.0226072217

> <hartree_to_kcalmol>
627.49467516

> <boltzmann_constant>
0.0000000000000000000000138066

> <avogadro_number>
602214000000000000000000

> <jmol_to_kcalmol>
0.00023901

> <temp>
313.15

> <kT>
.6223089948281258706000000000

> <magnitude1>
1.43290809

> <magnitude2>
2.86581618

> <magnitude3>
4.29872427

> <magnitude4>
5.73163236

> <DFT_IDENTIFIER>
1713561791186

> <DFT_MACHINE>
158.36.42.38

> <XTB_IDENTIFIER>
1713560837384

> <XTB_MACHINE>
158.36.42.38

> <DESCRIPTOR_DEFINITION_1>
desc1=( echo "1 * ( e( $hartree_to_kcalmol * ( ( $freeEnergyZ - $freeEnergyD ) - ( $freeEnergyX + 2*$G_Ethene - $freeEnergyD - 2*$G_Propene ) - $DDG_reference_HGII ) / $kT ) ) " | bc -l )

> <DESCRIPTOR_DEFINITION_2>
desc2=$( echo "1 * ( $hartree_to_kcalmol * ( ( $freeEnergyZ - $freeEnergyD ) - ( $freeEnergyX + 2*$G_Ethene - $freeEnergyD - 2*$G_Propene ) ) )" | bc -l )

> <DESCRIPTOR_DEFINITION_3>
desc3=$( echo "1 * $hartree_to_kcalmol * ( $DG_referenceProductionBarrier - ( $freeEnergyX + 2*$G_Ethene - $freeEnergyD - 2*$G_Propene ) )" | bc -l )

> <WEIGHT_DEFINITION_1>
w1=$( echo "1 / ( 1 + e( $hartree_to_kcalmol * ( ( ( $freeEnergyX + 2*$G_Ethene - $freeEnergyD - 2*$G_Propene ) ) - ( $DG_referenceProductionBarrier + $magnitude4 ) ) / $kT ) )" | bc -l )

> <WEIGHT_DEFINITION_2>
w2=$( echo "1 / ( 1 + e( $hartree_to_kcalmol * ( ABS( $freeEnergyC + $G_HoveydaProd - $freeEnergyA - 2*${G_Ethene} - $DG_referencePrecursorStabilityHII ) - ( $DDG_referencePrecursorStability + $magnitude1 ) ) / $kT ) )" | bc -l )

> <WEIGHT_DEFINITION_3>
w3=$( echo "1 / ( 1 + e( $hartree_to_kcalmol * ( ( $freeEnergyE + $G_PCy3 - $G_HI_precursor - $freeEnergyL ) - $magnitude1 ) / $kT ) )" | bc -l )

> <WEIGHT_DEFINITION_4>
w4=$( echo "1 / ( 1 + e( $hartree_to_kcalmol * ( - ( $freeEnergyF - $freeEnergyA ) + $magnitude2 ) / $kT ) )" | bc -l )

> <FITNESS_DEFINITION>
fitness=$( echo "( $desc1 + $desc2 + $desc3 ) * $w1 * $w2 * $w3 * $w4" | bc -l )

> <DESCRIPTOR_1>
.98473855994809095022

> <DESCRIPTOR_2>
13.940446928640501432

> <DESCRIPTOR_3>
0.0000000001

> <WEIGHT_1>
.99989778308162798719

> <WEIGHT_2>
.99999999617291632440

> <WEIGHT_3>
.99999999999396983724

> <WEIGHT_4>
.99998390594922725657

> <FITNESS>
14.92341964287878175053

$$$$
