
  CDK     04192420573D

 61 65  0  0  0  0  0  0  0  0999 V2000
   -3.3652   -0.5238    0.3878 H   0  0  0  0  0  0  0  0  0  0  0  0
   -3.3669   -1.7533    0.3384 C   0  0  0  0  0  0  0  0  0  0  0  0
   -4.4621   -1.6845    0.1486 H   0  0  0  0  0  0  0  0  0  0  0  0
   -2.3627   -1.9949   -0.7382 C   0  0  0  0  0  0  0  0  0  0  0  0
   -1.8135   -2.9507   -0.7075 H   0  0  0  0  0  0  0  0  0  0  0  0
   -2.6258   -1.6353   -1.7475 H   0  0  0  0  0  0  0  0  0  0  0  0
   -1.6002   -0.5730    0.5568 Ru  0  0  0  0  0  0  0  0  0  0  0  0
   -2.8121   -2.0082    1.6670 C   0  0  0  0  0  0  0  0  0  0  0  0
   -2.2071   -2.9067    1.8383 H   0  0  0  0  0  0  0  0  0  0  0  0
   -3.3665   -1.6201    2.5382 H   0  0  0  0  0  0  0  0  0  0  0  0
    0.0774   -2.1766    1.3054 Cl  0  0  0  0  0  0  0  0  0  0  0  0
   -2.6523    1.3175   -0.5167 Cl  0  0  0  0  0  0  0  0  0  0  0  0
    1.1494    0.7626    0.8870 N   0  0  0  0  0  0  0  0  0  0  0  0
    0.5242    0.7095   -1.2242 N   0  0  0  0  0  0  0  0  0  0  0  0
    0.1851    0.3196    0.0308 C   0  0  0  0  0  0  0  0  0  0  0  0
    2.0878    1.6856    0.2137 C   0  0  0  0  0  0  0  0  0  0  0  0
    3.1305    1.5057    0.5291 H   0  0  0  0  0  0  0  0  0  0  0  0
    1.8171    2.7316    0.4753 H   0  0  0  0  0  0  0  0  0  0  0  0
    1.8440    1.3729   -1.2622 C   0  0  0  0  0  0  0  0  0  0  0  0
    1.8098    2.2763   -1.8985 H   0  0  0  0  0  0  0  0  0  0  0  0
    2.5967    0.6716   -1.6844 H   0  0  0  0  0  0  0  0  0  0  0  0
    1.2223    0.5666    2.3019 C   0  0  0  0  0  0  0  0  0  0  0  0
    2.3765   -0.0551    2.8363 C   0  0  0  0  0  0  0  0  0  0  0  0
    2.4811   -0.1795    4.2304 C   0  0  0  0  0  0  0  0  0  0  0  0
    3.3729   -0.6722    4.6488 H   0  0  0  0  0  0  0  0  0  0  0  0
    1.4693    0.2660    5.0986 C   0  0  0  0  0  0  0  0  0  0  0  0
    0.3134    0.8243    4.5300 C   0  0  0  0  0  0  0  0  0  0  0  0
   -0.5104    1.1468    5.1859 H   0  0  0  0  0  0  0  0  0  0  0  0
    0.1665    0.9820    3.1413 C   0  0  0  0  0  0  0  0  0  0  0  0
    3.4300   -0.6548    1.9417 C   0  0  0  0  0  0  0  0  0  0  0  0
    4.1821    0.0897    1.6008 H   0  0  0  0  0  0  0  0  0  0  0  0
    2.9616   -1.1096    1.0464 H   0  0  0  0  0  0  0  0  0  0  0  0
    3.9849   -1.4465    2.4797 H   0  0  0  0  0  0  0  0  0  0  0  0
    1.6235    0.1426    6.5934 C   0  0  0  0  0  0  0  0  0  0  0  0
    2.2466    0.9678    7.0006 H   0  0  0  0  0  0  0  0  0  0  0  0
    2.1218   -0.8071    6.8725 H   0  0  0  0  0  0  0  0  0  0  0  0
    0.6445    0.1829    7.1090 H   0  0  0  0  0  0  0  0  0  0  0  0
   -1.1209    1.4910    2.5699 C   0  0  0  0  0  0  0  0  0  0  0  0
   -1.0015    2.1728    1.7095 H   0  0  0  0  0  0  0  0  0  0  0  0
   -1.7439    1.9867    3.3383 H   0  0  0  0  0  0  0  0  0  0  0  0
   -1.7746    0.6276    2.2203 H   0  0  0  0  0  0  0  0  0  0  0  0
   -0.0933    0.2938   -2.4518 C   0  0  0  0  0  0  0  0  0  0  0  0
    0.0619   -1.0441   -2.8874 C   0  0  0  0  0  0  0  0  0  0  0  0
   -0.5576   -1.4187   -4.0913 C   0  0  0  0  0  0  0  0  0  0  0  0
   -0.4519   -2.4602   -4.4338 H   0  0  0  0  0  0  0  0  0  0  0  0
   -1.2856   -0.5040   -4.8738 C   0  0  0  0  0  0  0  0  0  0  0  0
   -1.3514    0.8306   -4.4433 C   0  0  0  0  0  0  0  0  0  0  0  0
   -1.8896    1.5704   -5.0563 H   0  0  0  0  0  0  0  0  0  0  0  0
   -0.7549    1.2574   -3.2438 C   0  0  0  0  0  0  0  0  0  0  0  0
    0.8990   -2.0301   -2.1193 C   0  0  0  0  0  0  0  0  0  0  0  0
    1.9335   -1.6516   -1.9756 H   0  0  0  0  0  0  0  0  0  0  0  0
    0.9680   -2.9906   -2.6638 H   0  0  0  0  0  0  0  0  0  0  0  0
    0.5006   -2.2255   -1.1027 H   0  0  0  0  0  0  0  0  0  0  0  0
   -1.9795   -0.9502   -6.1362 C   0  0  0  0  0  0  0  0  0  0  0  0
   -2.9720   -1.3941   -5.9065 H   0  0  0  0  0  0  0  0  0  0  0  0
   -1.3946   -1.7247   -6.6710 H   0  0  0  0  0  0  0  0  0  0  0  0
   -2.1509   -0.1041   -6.8296 H   0  0  0  0  0  0  0  0  0  0  0  0
   -0.7946    2.7137   -2.8597 C   0  0  0  0  0  0  0  0  0  0  0  0
   -0.7468    2.8462   -1.7641 H   0  0  0  0  0  0  0  0  0  0  0  0
   -1.7293    3.1874   -3.2152 H   0  0  0  0  0  0  0  0  0  0  0  0
    0.0511    3.2669   -3.3250 H   0  0  0  0  0  0  0  0  0  0  0  0
  1  2  1  0  0  0  0
  1  7  1  0  0  0  0
  2  3  1  0  0  0  0
  2  4  1  0  0  0  0
  4  5  1  0  0  0  0
  6  4  1  0  0  0  0
  7  8  1  0  0  0  0
  7  4  1  0  0  0  0
  8  2  1  0  0  0  0
  8  9  1  0  0  0  0
 10  8  1  0  0  0  0
  7 11  1  0  0  0  0
  7 12  1  0  0  0  0
 13 15  1  0  0  0  0
 13 16  1  0  0  0  0
 13 22  1  0  0  0  0
 14 15  1  0  0  0  0
 14 19  1  0  0  0  0
 14 42  1  0  0  0  0
 16 17  1  0  0  0  0
 16 18  1  0  0  0  0
 16 19  1  0  0  0  0
 19 20  1  0  0  0  0
 19 21  1  0  0  0  0
 22 23  1  0  0  0  0
 22 29  2  0  0  0  0
 23 24  2  0  0  0  0
 23 30  1  0  0  0  0
 24 25  1  0  0  0  0
 24 26  1  0  0  0  0
 26 27  2  0  0  0  0
 26 34  1  0  0  0  0
 27 28  1  0  0  0  0
 27 29  1  0  0  0  0
 29 38  1  0  0  0  0
 30 31  1  0  0  0  0
 30 32  1  0  0  0  0
 30 33  1  0  0  0  0
 34 35  1  0  0  0  0
 34 36  1  0  0  0  0
 34 37  1  0  0  0  0
 38 39  1  0  0  0  0
 38 40  1  0  0  0  0
 38 41  1  0  0  0  0
 42 43  1  0  0  0  0
 42 49  2  0  0  0  0
 43 44  2  0  0  0  0
 43 50  1  0  0  0  0
 44 45  1  0  0  0  0
 44 46  1  0  0  0  0
 46 47  2  0  0  0  0
 46 54  1  0  0  0  0
 47 48  1  0  0  0  0
 47 49  1  0  0  0  0
 49 58  1  0  0  0  0
 50 51  1  0  0  0  0
 50 52  1  0  0  0  0
 50 53  1  0  0  0  0
 54 55  1  0  0  0  0
 54 56  1  0  0  0  0
 54 57  1  0  0  0  0
 58 59  1  0  0  0  0
 58 60  1  0  0  0  0
 58 61  1  0  0  0  0
  7 15  1  0  0  0  0
M  END
>  <DFT-ENERGY>
-2056.86024285

$$$$
