
  CDK     08132413453D

 65 69  0  0  0  0  0  0  0  0999 V2000
    1.1729   -0.6930   -3.2749 H   0  0  0  0  0  0  0  0  0  0  0  0
    2.3873   -0.5275   -3.1658 C   0  0  0  0  0  0  0  0  0  0  0  0
    2.4395   -0.5099   -4.2775 H   0  0  0  0  0  0  0  0  0  0  0  0
    2.4174    0.7056   -2.3244 C   0  0  0  0  0  0  0  0  0  0  0  0
    3.2956    0.8599   -1.6754 H   0  0  0  0  0  0  0  0  0  0  0  0
    2.0005    1.6223   -2.7767 H   0  0  0  0  0  0  0  0  0  0  0  0
    1.0373   -0.5882   -1.5094 Ru  0  0  0  0  0  0  0  0  0  0  0  0
    2.6613   -1.7312   -2.3744 C   0  0  0  0  0  0  0  0  0  0  0  0
    3.5128   -1.7434   -1.6837 H   0  0  0  0  0  0  0  0  0  0  0  0
    2.3797   -2.7028   -2.8156 H   0  0  0  0  0  0  0  0  0  0  0  0
    2.5399   -0.8826    0.3852 Cl  0  0  0  0  0  0  0  0  0  0  0  0
   -0.8272    0.0686   -2.8694 Cl  0  0  0  0  0  0  0  0  0  0  0  0
   -0.7078   -0.8394    1.0335 N   0  0  0  0  0  0  0  0  0  0  0  0
   -0.5254    1.2382    0.4522 N   0  0  0  0  0  0  0  0  0  0  0  0
   -0.1192   -0.0227    0.1060 C   0  0  0  0  0  0  0  0  0  0  0  0
   -1.4712   -0.1054    1.9567 C   0  0  0  0  0  0  0  0  0  0  0  0
   -2.2302   -0.7610    3.0565 C   0  0  0  0  0  0  0  0  0  0  0  0
   -1.3504    1.2154    1.5908 C   0  0  0  0  0  0  0  0  0  0  0  0
   -1.9036    2.4592    2.1930 C   0  0  0  0  0  0  0  0  0  0  0  0
   -0.5906   -2.2745    1.0266 C   0  0  0  0  0  0  0  0  0  0  0  0
   -1.3941   -3.0037    0.1176 C   0  0  0  0  0  0  0  0  0  0  0  0
   -1.2425   -4.3994    0.0878 C   0  0  0  0  0  0  0  0  0  0  0  0
   -1.8584   -4.9808   -0.6159 H   0  0  0  0  0  0  0  0  0  0  0  0
   -0.3450   -5.0692    0.9396 C   0  0  0  0  0  0  0  0  0  0  0  0
    0.3850   -4.3097    1.8670 C   0  0  0  0  0  0  0  0  0  0  0  0
    1.0698   -4.8200    2.5624 H   0  0  0  0  0  0  0  0  0  0  0  0
    0.2775   -2.9090    1.9391 C   0  0  0  0  0  0  0  0  0  0  0  0
   -2.4120   -2.3197   -0.7562 C   0  0  0  0  0  0  0  0  0  0  0  0
   -3.0312   -1.6081   -0.1717 H   0  0  0  0  0  0  0  0  0  0  0  0
   -3.0860   -3.0632   -1.2213 H   0  0  0  0  0  0  0  0  0  0  0  0
   -1.9415   -1.7247   -1.5671 H   0  0  0  0  0  0  0  0  0  0  0  0
   -0.1703   -6.5643    0.8504 C   0  0  0  0  0  0  0  0  0  0  0  0
   -1.1255   -7.0731    0.6127 H   0  0  0  0  0  0  0  0  0  0  0  0
    0.2237   -6.9872    1.7947 H   0  0  0  0  0  0  0  0  0  0  0  0
    0.5480   -6.8290    0.0452 H   0  0  0  0  0  0  0  0  0  0  0  0
    1.0454   -2.1582    2.9957 C   0  0  0  0  0  0  0  0  0  0  0  0
    1.0189   -1.0667    2.8386 H   0  0  0  0  0  0  0  0  0  0  0  0
    2.1093   -2.4627    2.9872 H   0  0  0  0  0  0  0  0  0  0  0  0
    0.6388   -2.3903    4.0039 H   0  0  0  0  0  0  0  0  0  0  0  0
   -0.1870    2.4408   -0.2661 C   0  0  0  0  0  0  0  0  0  0  0  0
    1.0625    3.0520   -0.0106 C   0  0  0  0  0  0  0  0  0  0  0  0
    1.3895    4.1991   -0.7503 C   0  0  0  0  0  0  0  0  0  0  0  0
    2.3626    4.6817   -0.5685 H   0  0  0  0  0  0  0  0  0  0  0  0
    0.5095    4.7496   -1.7015 C   0  0  0  0  0  0  0  0  0  0  0  0
   -0.7437    4.1440   -1.8767 C   0  0  0  0  0  0  0  0  0  0  0  0
   -1.4567    4.5759   -2.5962 H   0  0  0  0  0  0  0  0  0  0  0  0
   -1.1236    2.9914   -1.1634 C   0  0  0  0  0  0  0  0  0  0  0  0
    1.9939    2.5119    1.0377 C   0  0  0  0  0  0  0  0  0  0  0  0
    2.3457    1.4882    0.7878 H   0  0  0  0  0  0  0  0  0  0  0  0
    1.4850    2.4297    2.0214 H   0  0  0  0  0  0  0  0  0  0  0  0
    2.8722    3.1729    1.1604 H   0  0  0  0  0  0  0  0  0  0  0  0
    0.9129    5.9569   -2.5104 C   0  0  0  0  0  0  0  0  0  0  0  0
    0.0408    6.4316   -2.9996 H   0  0  0  0  0  0  0  0  0  0  0  0
    1.6310    5.6756   -3.3100 H   0  0  0  0  0  0  0  0  0  0  0  0
    1.4148    6.7190   -1.8809 H   0  0  0  0  0  0  0  0  0  0  0  0
   -2.5087    2.4256   -1.3440 C   0  0  0  0  0  0  0  0  0  0  0  0
   -2.5932    1.3918   -0.9675 H   0  0  0  0  0  0  0  0  0  0  0  0
   -2.7861    2.4129   -2.4148 H   0  0  0  0  0  0  0  0  0  0  0  0
   -3.2556    3.0569   -0.8148 H   0  0  0  0  0  0  0  0  0  0  0  0
   -2.4449    2.2233    3.1278 H   0  0  0  0  0  0  0  0  0  0  0  0
   -2.6070    2.9739    1.5073 H   0  0  0  0  0  0  0  0  0  0  0  0
   -1.0979    3.1828    2.4333 H   0  0  0  0  0  0  0  0  0  0  0  0
   -2.8966   -1.5569    2.6655 H   0  0  0  0  0  0  0  0  0  0  0  0
   -1.5562   -1.2369    3.7979 H   0  0  0  0  0  0  0  0  0  0  0  0
   -2.8542   -0.0182    3.5871 H   0  0  0  0  0  0  0  0  0  0  0  0
  1  2  1  0  0  0  0
  1  7  1  0  0  0  0
  2  3  1  0  0  0  0
  2  4  1  0  0  0  0
  4  5  1  0  0  0  0
  6  4  1  0  0  0  0
  7  8  1  0  0  0  0
  7  4  1  0  0  0  0
  8  2  1  0  0  0  0
  8  9  1  0  0  0  0
 10  8  1  0  0  0  0
  7 11  1  0  0  0  0
  7 12  1  0  0  0  0
 13 15  1  0  0  0  0
 13 16  1  0  0  0  0
 13 20  1  0  0  0  0
 14 15  1  0  0  0  0
 14 18  1  0  0  0  0
 14 40  1  0  0  0  0
 16 17  1  0  0  0  0
 16 18  2  0  0  0  0
 18 19  1  0  0  0  0
 20 21  2  0  0  0  0
 20 27  1  0  0  0  0
 21 22  1  0  0  0  0
 21 28  1  0  0  0  0
 22 23  1  0  0  0  0
 22 24  2  0  0  0  0
 24 25  1  0  0  0  0
 24 32  1  0  0  0  0
 25 26  1  0  0  0  0
 25 27  2  0  0  0  0
 27 36  1  0  0  0  0
 28 29  1  0  0  0  0
 28 30  1  0  0  0  0
 28 31  1  0  0  0  0
 32 33  1  0  0  0  0
 32 34  1  0  0  0  0
 32 35  1  0  0  0  0
 36 37  1  0  0  0  0
 36 38  1  0  0  0  0
 36 39  1  0  0  0  0
 40 41  2  0  0  0  0
 40 47  1  0  0  0  0
 41 42  1  0  0  0  0
 41 48  1  0  0  0  0
 42 43  1  0  0  0  0
 42 44  2  0  0  0  0
 44 45  1  0  0  0  0
 44 52  1  0  0  0  0
 45 46  1  0  0  0  0
 45 47  2  0  0  0  0
 47 56  1  0  0  0  0
 48 49  1  0  0  0  0
 48 50  1  0  0  0  0
 48 51  1  0  0  0  0
 52 53  1  0  0  0  0
 52 54  1  0  0  0  0
 52 55  1  0  0  0  0
 56 57  1  0  0  0  0
 56 58  1  0  0  0  0
 56 59  1  0  0  0  0
 19 60  1  0  0  0  0
 19 61  1  0  0  0  0
 19 62  1  0  0  0  0
 17 63  1  0  0  0  0
 17 64  1  0  0  0  0
 17 65  1  0  0  0  0
  7 15  1  0  0  0  0
M  END
>  <DFT-ENERGY>
-2134.20851879

$$$$
