
  CDK     08132415383D

 65 68  0  0  0  0  0  0  0  0999 V2000
   -0.0170    0.0002    1.7441 Ru  0  0  0  0  0  0  0  0  0  0  0  0
   -0.0342   -1.3498    3.1599 C   0  0  0  0  0  0  0  0  0  0  0  0
   -0.9812   -1.9084    3.2677 H   0  0  0  0  0  0  0  0  0  0  0  0
   -0.0096    0.0000    3.9866 C   0  0  0  0  0  0  0  0  0  0  0  0
   -0.9390    0.0150    4.5844 H   0  0  0  0  0  0  0  0  0  0  0  0
    0.0093    1.3500    3.1600 C   0  0  0  0  0  0  0  0  0  0  0  0
    0.9569    1.9087    3.2616 H   0  0  0  0  0  0  0  0  0  0  0  0
   -0.9191    1.9389    3.2677 H   0  0  0  0  0  0  0  0  0  0  0  0
    0.9239   -0.0150    4.5780 H   0  0  0  0  0  0  0  0  0  0  0  0
    0.8948   -1.9389    3.2615 H   0  0  0  0  0  0  0  0  0  0  0  0
   -2.4075    0.0385    1.8524 Cl  0  0  0  0  0  0  0  0  0  0  0  0
    2.3742   -0.0382    1.8372 Cl  0  0  0  0  0  0  0  0  0  0  0  0
   -0.0371   -1.0840   -1.0920 N   0  0  0  0  0  0  0  0  0  0  0  0
   -0.0144    1.0848   -1.0919 N   0  0  0  0  0  0  0  0  0  0  0  0
   -0.0232    0.0003   -0.2656 C   0  0  0  0  0  0  0  0  0  0  0  0
   -0.0374   -0.6870   -2.4443 C   0  0  0  0  0  0  0  0  0  0  0  0
   -0.0528   -1.6824   -3.5505 C   0  0  0  0  0  0  0  0  0  0  0  0
   -0.0225    0.6881   -2.4442 C   0  0  0  0  0  0  0  0  0  0  0  0
   -0.0139    1.6837   -3.5503 C   0  0  0  0  0  0  0  0  0  0  0  0
   -0.0502   -2.4449   -0.6192 C   0  0  0  0  0  0  0  0  0  0  0  0
    1.1826   -3.1048   -0.4208 C   0  0  0  0  0  0  0  0  0  0  0  0
    1.1395   -4.4198    0.0740 C   0  0  0  0  0  0  0  0  0  0  0  0
    2.0895   -4.9507    0.2407 H   0  0  0  0  0  0  0  0  0  0  0  0
   -0.0755   -5.0714    0.3511 C   0  0  0  0  0  0  0  0  0  0  0  0
   -1.2780   -4.3909    0.0893 C   0  0  0  0  0  0  0  0  0  0  0  0
   -2.2382   -4.8991    0.2680 H   0  0  0  0  0  0  0  0  0  0  0  0
   -1.2958   -3.0751   -0.4052 C   0  0  0  0  0  0  0  0  0  0  0  0
    2.4904   -2.4270   -0.7216 C   0  0  0  0  0  0  0  0  0  0  0  0
    3.3226   -3.1552   -0.7052 H   0  0  0  0  0  0  0  0  0  0  0  0
    2.6985   -1.6363    0.0326 H   0  0  0  0  0  0  0  0  0  0  0  0
    2.4797   -1.9303   -1.7131 H   0  0  0  0  0  0  0  0  0  0  0  0
   -0.0882   -6.4660    0.9248 C   0  0  0  0  0  0  0  0  0  0  0  0
    0.7965   -7.0487    0.6017 H   0  0  0  0  0  0  0  0  0  0  0  0
   -0.9992   -7.0216    0.6283 H   0  0  0  0  0  0  0  0  0  0  0  0
   -0.0710   -6.4343    2.0353 H   0  0  0  0  0  0  0  0  0  0  0  0
   -2.5906   -2.3662   -0.6901 C   0  0  0  0  0  0  0  0  0  0  0  0
   -3.4395   -3.0747   -0.6650 H   0  0  0  0  0  0  0  0  0  0  0  0
   -2.5793   -1.8687   -1.6812 H   0  0  0  0  0  0  0  0  0  0  0  0
   -2.7719   -1.5714    0.0668 H   0  0  0  0  0  0  0  0  0  0  0  0
    0.0018    2.4457   -0.6189 C   0  0  0  0  0  0  0  0  0  0  0  0
   -1.2297    3.1055   -0.4127 C   0  0  0  0  0  0  0  0  0  0  0  0
   -1.1834    4.4205    0.0821 C   0  0  0  0  0  0  0  0  0  0  0  0
   -2.1324    4.9515    0.2549 H   0  0  0  0  0  0  0  0  0  0  0  0
    0.0333    5.0719    0.3517 C   0  0  0  0  0  0  0  0  0  0  0  0
    1.2341    4.3915    0.0822 C   0  0  0  0  0  0  0  0  0  0  0  0
    2.1955    4.8995    0.2548 H   0  0  0  0  0  0  0  0  0  0  0  0
    1.2487    3.0757   -0.4127 C   0  0  0  0  0  0  0  0  0  0  0  0
   -2.5394    2.4278   -0.7053 C   0  0  0  0  0  0  0  0  0  0  0  0
   -2.7426    1.6367    0.0498 H   0  0  0  0  0  0  0  0  0  0  0  0
   -2.5350    1.9317   -1.6972 H   0  0  0  0  0  0  0  0  0  0  0  0
   -3.3715    3.1560   -0.6832 H   0  0  0  0  0  0  0  0  0  0  0  0
    0.0500    6.4665    0.9256 C   0  0  0  0  0  0  0  0  0  0  0  0
    0.9556    7.0244    0.6174 H   0  0  0  0  0  0  0  0  0  0  0  0
    0.0476    6.4343    2.0363 H   0  0  0  0  0  0  0  0  0  0  0  0
   -0.8404    7.0470    0.6143 H   0  0  0  0  0  0  0  0  0  0  0  0
    2.5417    2.3669   -0.7059 C   0  0  0  0  0  0  0  0  0  0  0  0
    2.7279    1.5722    0.0500 H   0  0  0  0  0  0  0  0  0  0  0  0
    3.3907    3.0754   -0.6864 H   0  0  0  0  0  0  0  0  0  0  0  0
    2.5240    1.8692   -1.6968 H   0  0  0  0  0  0  0  0  0  0  0  0
   -0.0221    1.1697   -4.5291 H   0  0  0  0  0  0  0  0  0  0  0  0
    0.8848    2.3331   -3.5078 H   0  0  0  0  0  0  0  0  0  0  0  0
   -0.8973    2.3536   -3.5036 H   0  0  0  0  0  0  0  0  0  0  0  0
    0.8310   -2.3521   -3.5097 H   0  0  0  0  0  0  0  0  0  0  0  0
   -0.9511   -2.3321   -3.5023 H   0  0  0  0  0  0  0  0  0  0  0  0
   -0.0511   -1.1682   -4.5292 H   0  0  0  0  0  0  0  0  0  0  0  0
  2  4  1  0  0  0  0
  2  1  1  0  0  0  0
  2  3  1  0  0  0  0
  4  6  1  0  0  0  0
  4  5  1  0  0  0  0
  6  1  1  0  0  0  0
  6  8  1  0  0  0  0
  7  6  1  0  0  0  0
  9  4  1  0  0  0  0
 10  2  1  0  0  0  0
  1 11  1  0  0  0  0
  1 12  1  0  0  0  0
 13 15  1  0  0  0  0
 13 16  1  0  0  0  0
 13 20  1  0  0  0  0
 14 15  1  0  0  0  0
 14 18  1  0  0  0  0
 14 40  1  0  0  0  0
 16 17  1  0  0  0  0
 16 18  2  0  0  0  0
 18 19  1  0  0  0  0
 20 21  2  0  0  0  0
 20 27  1  0  0  0  0
 21 22  1  0  0  0  0
 21 28  1  0  0  0  0
 22 23  1  0  0  0  0
 22 24  2  0  0  0  0
 24 25  1  0  0  0  0
 24 32  1  0  0  0  0
 25 26  1  0  0  0  0
 25 27  2  0  0  0  0
 27 36  1  0  0  0  0
 28 29  1  0  0  0  0
 28 30  1  0  0  0  0
 28 31  1  0  0  0  0
 32 33  1  0  0  0  0
 32 34  1  0  0  0  0
 32 35  1  0  0  0  0
 36 37  1  0  0  0  0
 36 38  1  0  0  0  0
 36 39  1  0  0  0  0
 40 41  2  0  0  0  0
 40 47  1  0  0  0  0
 41 42  1  0  0  0  0
 41 48  1  0  0  0  0
 42 43  1  0  0  0  0
 42 44  2  0  0  0  0
 44 45  1  0  0  0  0
 44 52  1  0  0  0  0
 45 46  1  0  0  0  0
 45 47  2  0  0  0  0
 47 56  1  0  0  0  0
 48 49  1  0  0  0  0
 48 50  1  0  0  0  0
 48 51  1  0  0  0  0
 52 53  1  0  0  0  0
 52 54  1  0  0  0  0
 52 55  1  0  0  0  0
 56 57  1  0  0  0  0
 56 58  1  0  0  0  0
 56 59  1  0  0  0  0
 19 60  1  0  0  0  0
 19 61  1  0  0  0  0
 19 62  1  0  0  0  0
 17 63  1  0  0  0  0
 17 64  1  0  0  0  0
 17 65  1  0  0  0  0
  1 15  1  0  0  0  0
M  END
>  <DFT-ENERGY>
-2134.2543816

$$$$
