
  CDK     02062402003D

 61 64  0  0  0  0  0  0  0  0999 V2000
    1.2443    0.7490   -0.1359 Ru  0  0  0  0  0  0  0  0  0  0  0  0
    2.8198    0.6867   -1.2980 C   0  0  0  0  0  0  0  0  0  0  0  0
    2.6459    0.9940   -2.3443 H   0  0  0  0  0  0  0  0  0  0  0  0
    3.1673    1.8967   -0.3381 C   0  0  0  0  0  0  0  0  0  0  0  0
    3.2643    2.7876   -0.9845 H   0  0  0  0  0  0  0  0  0  0  0  0
    2.0957    2.2635    0.7682 C   0  0  0  0  0  0  0  0  0  0  0  0
    2.4430    2.0630    1.7971 H   0  0  0  0  0  0  0  0  0  0  0  0
    1.6117    3.2414    0.5971 H   0  0  0  0  0  0  0  0  0  0  0  0
    4.0878    1.6117    0.2028 H   0  0  0  0  0  0  0  0  0  0  0  0
    3.4752   -0.1894   -1.1477 H   0  0  0  0  0  0  0  0  0  0  0  0
    0.2835    2.2984   -1.6862 Cl  0  0  0  0  0  0  0  0  0  0  0  0
    2.3946   -0.6850    1.3955 Cl  0  0  0  0  0  0  0  0  0  0  0  0
   -0.9321   -1.1658   -0.8527 N   0  0  0  0  0  0  0  0  0  0  0  0
   -1.3496   -0.1300    1.0520 N   0  0  0  0  0  0  0  0  0  0  0  0
   -0.4672   -0.2594    0.0362 C   0  0  0  0  0  0  0  0  0  0  0  0
   -2.1706   -1.8125   -0.3720 C   0  0  0  0  0  0  0  0  0  0  0  0
   -1.9550   -2.8541   -0.0496 H   0  0  0  0  0  0  0  0  0  0  0  0
   -2.9285   -1.8478   -1.1776 H   0  0  0  0  0  0  0  0  0  0  0  0
   -2.5821   -0.9061    0.8035 C   0  0  0  0  0  0  0  0  0  0  0  0
   -3.4158   -0.2208    0.5382 H   0  0  0  0  0  0  0  0  0  0  0  0
   -2.8727   -1.4737    1.7081 H   0  0  0  0  0  0  0  0  0  0  0  0
   -0.2125   -1.5779   -2.0264 C   0  0  0  0  0  0  0  0  0  0  0  0
   -0.5642   -1.0013   -3.2699 C   0  0  0  0  0  0  0  0  0  0  0  0
    0.1776   -1.3770   -4.4006 C   0  0  0  0  0  0  0  0  0  0  0  0
   -0.0776   -0.9263   -5.3723 H   0  0  0  0  0  0  0  0  0  0  0  0
    1.2301   -2.3081   -4.3237 C   0  0  0  0  0  0  0  0  0  0  0  0
    1.5094   -2.9001   -3.0809 C   0  0  0  0  0  0  0  0  0  0  0  0
    2.3030   -3.6602   -3.0101 H   0  0  0  0  0  0  0  0  0  0  0  0
    0.7955   -2.5629   -1.9159 C   0  0  0  0  0  0  0  0  0  0  0  0
   -1.6907   -0.0100   -3.3742 C   0  0  0  0  0  0  0  0  0  0  0  0
   -2.6419   -0.4234   -2.9785 H   0  0  0  0  0  0  0  0  0  0  0  0
   -1.8611    0.2810   -4.4275 H   0  0  0  0  0  0  0  0  0  0  0  0
   -1.4499    0.9044   -2.7927 H   0  0  0  0  0  0  0  0  0  0  0  0
    2.0362   -2.6567   -5.5495 C   0  0  0  0  0  0  0  0  0  0  0  0
    2.6042   -3.5967   -5.4119 H   0  0  0  0  0  0  0  0  0  0  0  0
    2.7700   -1.8550   -5.7799 H   0  0  0  0  0  0  0  0  0  0  0  0
    1.3902   -2.7682   -6.4433 H   0  0  0  0  0  0  0  0  0  0  0  0
    1.1010   -3.2397   -0.6075 C   0  0  0  0  0  0  0  0  0  0  0  0
    1.6279   -2.5536    0.0913 H   0  0  0  0  0  0  0  0  0  0  0  0
    1.7410   -4.1274   -0.7687 H   0  0  0  0  0  0  0  0  0  0  0  0
    0.1786   -3.5746   -0.0910 H   0  0  0  0  0  0  0  0  0  0  0  0
   -1.1757    0.7744    2.1553 C   0  0  0  0  0  0  0  0  0  0  0  0
   -1.5598    2.1276    2.0166 C   0  0  0  0  0  0  0  0  0  0  0  0
   -1.3267    2.9871    3.1061 C   0  0  0  0  0  0  0  0  0  0  0  0
   -1.6128    4.0462    3.0112 H   0  0  0  0  0  0  0  0  0  0  0  0
   -0.7564    2.5315    4.3063 C   0  0  0  0  0  0  0  0  0  0  0  0
   -0.4444    1.1643    4.4230 C   0  0  0  0  0  0  0  0  0  0  0  0
   -0.0260    0.7824    5.3672 H   0  0  0  0  0  0  0  0  0  0  0  0
   -0.6510    0.2639    3.3662 C   0  0  0  0  0  0  0  0  0  0  0  0
   -2.2025    2.6420    0.7573 C   0  0  0  0  0  0  0  0  0  0  0  0
   -1.4812    2.6654   -0.0885 H   0  0  0  0  0  0  0  0  0  0  0  0
   -2.5907    3.6666    0.9090 H   0  0  0  0  0  0  0  0  0  0  0  0
   -3.0510    2.0026    0.4382 H   0  0  0  0  0  0  0  0  0  0  0  0
   -0.4815    3.4802    5.4458 C   0  0  0  0  0  0  0  0  0  0  0  0
    0.5997    3.7297    5.4991 H   0  0  0  0  0  0  0  0  0  0  0  0
   -0.7572    3.0339    6.4222 H   0  0  0  0  0  0  0  0  0  0  0  0
   -1.0363    4.4309    5.3295 H   0  0  0  0  0  0  0  0  0  0  0  0
   -0.3118   -1.1943    3.5118 C   0  0  0  0  0  0  0  0  0  0  0  0
    0.5428   -1.4531    2.8515 H   0  0  0  0  0  0  0  0  0  0  0  0
   -1.1638   -1.8480    3.2324 H   0  0  0  0  0  0  0  0  0  0  0  0
   -0.0304   -1.4296    4.5552 H   0  0  0  0  0  0  0  0  0  0  0  0
  2  4  1  0  0  0  0
  2  1  1  0  0  0  0
  2  3  1  0  0  0  0
  4  6  1  0  0  0  0
  4  5  1  0  0  0  0
  6  1  1  0  0  0  0
  6  8  1  0  0  0  0
  7  6  1  0  0  0  0
  9  4  1  0  0  0  0
 10  2  1  0  0  0  0
  1 11  1  0  0  0  0
  1 12  1  0  0  0  0
 13 15  1  0  0  0  0
 13 16  1  0  0  0  0
 13 22  1  0  0  0  0
 14 15  1  0  0  0  0
 14 19  1  0  0  0  0
 14 42  1  0  0  0  0
 16 17  1  0  0  0  0
 16 18  1  0  0  0  0
 16 19  1  0  0  0  0
 19 20  1  0  0  0  0
 19 21  1  0  0  0  0
 22 23  1  0  0  0  0
 22 29  2  0  0  0  0
 23 24  2  0  0  0  0
 23 30  1  0  0  0  0
 24 25  1  0  0  0  0
 24 26  1  0  0  0  0
 26 27  2  0  0  0  0
 26 34  1  0  0  0  0
 27 28  1  0  0  0  0
 27 29  1  0  0  0  0
 29 38  1  0  0  0  0
 30 31  1  0  0  0  0
 30 32  1  0  0  0  0
 30 33  1  0  0  0  0
 34 35  1  0  0  0  0
 34 36  1  0  0  0  0
 34 37  1  0  0  0  0
 38 39  1  0  0  0  0
 38 40  1  0  0  0  0
 38 41  1  0  0  0  0
 42 43  1  0  0  0  0
 42 49  2  0  0  0  0
 43 44  2  0  0  0  0
 43 50  1  0  0  0  0
 44 45  1  0  0  0  0
 44 46  1  0  0  0  0
 46 47  2  0  0  0  0
 46 54  1  0  0  0  0
 47 48  1  0  0  0  0
 47 49  1  0  0  0  0
 49 58  1  0  0  0  0
 50 51  1  0  0  0  0
 50 52  1  0  0  0  0
 50 53  1  0  0  0  0
 54 55  1  0  0  0  0
 54 56  1  0  0  0  0
 54 57  1  0  0  0  0
 58 59  1  0  0  0  0
 58 60  1  0  0  0  0
 58 61  1  0  0  0  0
  1 15  1  0  0  0  0
M  END
>  <DFT-ENERGY>
-2056.90475017

$$$$
