
  CDK     08132407123D

 55 59  0  0  0  0  0  0  0  0999 V2000
    1.0792   -1.2877   -3.7884 H   0  0  0  0  0  0  0  0  0  0  0  0
    2.3062   -1.3621   -3.7340 C   0  0  0  0  0  0  0  0  0  0  0  0
    2.3444   -1.4490   -4.8413 H   0  0  0  0  0  0  0  0  0  0  0  0
    2.4619   -2.5271   -2.8137 C   0  0  0  0  0  0  0  0  0  0  0  0
    3.3744   -2.5769   -2.1978 H   0  0  0  0  0  0  0  0  0  0  0  0
    2.0968   -3.4953   -3.1999 H   0  0  0  0  0  0  0  0  0  0  0  0
    1.0294   -1.2573   -2.0156 Ru  0  0  0  0  0  0  0  0  0  0  0  0
    2.5344   -0.0968   -3.0163 C   0  0  0  0  0  0  0  0  0  0  0  0
    3.4163   -0.0023   -2.3703 H   0  0  0  0  0  0  0  0  0  0  0  0
    2.1912    0.8328   -3.5022 H   0  0  0  0  0  0  0  0  0  0  0  0
    2.6049   -0.8612   -0.1891 Cl  0  0  0  0  0  0  0  0  0  0  0  0
   -0.8000   -2.4210   -3.0530 Cl  0  0  0  0  0  0  0  0  0  0  0  0
    0.0442   -1.5974   -0.2481 C   0  0  0  0  0  0  0  0  0  0  0  0
   -0.4570   -0.6399    0.5814 N   0  0  0  0  0  0  0  0  0  0  0  0
   -1.3469   -1.2396    1.5989 C   0  0  0  0  0  0  0  0  0  0  0  0
   -0.9239   -2.7085    1.5631 C   0  0  0  0  0  0  0  0  0  0  0  0
   -0.3076   -2.8100    0.2310 N   0  0  0  0  0  0  0  0  0  0  0  0
   -0.1975    0.7651    0.5334 C   0  0  0  0  0  0  0  0  0  0  0  0
    0.2662    3.5507    0.4971 C   0  0  0  0  0  0  0  0  0  0  0  0
   -0.5682    1.5178   -0.6019 C   0  0  0  0  0  0  0  0  0  0  0  0
    0.4549    1.3764    1.6326 C   0  0  0  0  0  0  0  0  0  0  0  0
    0.6600    2.7646    1.5944 C   0  0  0  0  0  0  0  0  0  0  0  0
   -0.3289    2.9032   -0.5967 C   0  0  0  0  0  0  0  0  0  0  0  0
    1.1747    3.2424    2.4429 H   0  0  0  0  0  0  0  0  0  0  0  0
   -0.6185    3.4908   -1.4819 H   0  0  0  0  0  0  0  0  0  0  0  0
   -2.4041   -1.1008    1.2841 H   0  0  0  0  0  0  0  0  0  0  0  0
   -1.2099   -0.7688    2.5873 H   0  0  0  0  0  0  0  0  0  0  0  0
   -0.1638   -2.9527    2.3408 H   0  0  0  0  0  0  0  0  0  0  0  0
   -1.7699   -3.4134    1.6603 H   0  0  0  0  0  0  0  0  0  0  0  0
    0.9874    0.5690    2.7882 C   0  0  0  0  0  0  0  0  0  0  0  0
    1.3853   -0.4020    2.4330 H   0  0  0  0  0  0  0  0  0  0  0  0
    0.2158    0.3710    3.5639 H   0  0  0  0  0  0  0  0  0  0  0  0
    1.8106    1.1136    3.2879 H   0  0  0  0  0  0  0  0  0  0  0  0
   -1.1295    0.8473   -1.8174 C   0  0  0  0  0  0  0  0  0  0  0  0
   -0.3068    0.3458   -2.4157 H   0  0  0  0  0  0  0  0  0  0  0  0
   -1.5798    1.5750   -2.5184 H   0  0  0  0  0  0  0  0  0  0  0  0
   -1.8639    0.0527   -1.5922 H   0  0  0  0  0  0  0  0  0  0  0  0
    0.4826    5.0430    0.5009 C   0  0  0  0  0  0  0  0  0  0  0  0
    0.3839    5.4722   -0.5146 H   0  0  0  0  0  0  0  0  0  0  0  0
    1.4871    5.3051    0.8901 H   0  0  0  0  0  0  0  0  0  0  0  0
   -0.2591    5.5530    1.1520 H   0  0  0  0  0  0  0  0  0  0  0  0
    0.2766   -4.0744   -0.2009 C   0  0  0  0  0  0  0  0  0  0  0  0
    1.1454   -4.3139    0.4530 H   0  0  0  0  0  0  0  0  0  0  0  0
    0.6590   -3.9041   -1.2253 H   0  0  0  0  0  0  0  0  0  0  0  0
   -0.7305   -5.2029   -0.1687 C   0  0  0  0  0  0  0  0  0  0  0  0
   -2.6055   -7.3090   -0.1217 C   0  0  0  0  0  0  0  0  0  0  0  0
   -0.4695   -6.3749    0.5622 C   0  0  0  0  0  0  0  0  0  0  0  0
   -1.9443   -5.0910   -0.8765 C   0  0  0  0  0  0  0  0  0  0  0  0
   -2.8750   -6.1379   -0.8499 C   0  0  0  0  0  0  0  0  0  0  0  0
   -1.3989   -7.4268    0.5829 C   0  0  0  0  0  0  0  0  0  0  0  0
    0.4751   -6.4637    1.1212 H   0  0  0  0  0  0  0  0  0  0  0  0
   -2.1388   -4.1760   -1.4556 H   0  0  0  0  0  0  0  0  0  0  0  0
   -3.8176   -6.0428   -1.4088 H   0  0  0  0  0  0  0  0  0  0  0  0
   -1.1808   -8.3391    1.1572 H   0  0  0  0  0  0  0  0  0  0  0  0
   -3.3374   -8.1297   -0.1043 H   0  0  0  0  0  0  0  0  0  0  0  0
  1  2  1  0  0  0  0
  1  7  1  0  0  0  0
  2  3  1  0  0  0  0
  2  4  1  0  0  0  0
  4  5  1  0  0  0  0
  4  6  1  0  0  0  0
  7  8  1  0  0  0  0
  4  7  1  0  0  0  0
  2  8  1  0  0  0  0
  8  9  1  0  0  0  0
  8 10  1  0  0  0  0
  7 11  1  0  0  0  0
  7 12  1  0  0  0  0
 13 14  1  0  0  0  0
 13 17  1  0  0  0  0
 14 15  1  0  0  0  0
 16 17  1  0  0  0  0
 18 21  2  0  0  0  0
 21 22  1  0  0  0  0
 19 22  2  0  0  0  0
 19 23  1  0  0  0  0
 20 23  2  0  0  0  0
 18 20  1  0  0  0  0
 22 24  1  0  0  0  0
 23 25  1  0  0  0  0
 14 18  1  0  0  0  0
 15 16  1  0  0  0  0
 15 26  1  0  0  0  0
 15 27  1  0  0  0  0
 16 28  1  0  0  0  0
 16 29  1  0  0  0  0
 30 31  1  0  0  0  0
 30 32  1  0  0  0  0
 30 33  1  0  0  0  0
 21 30  1  0  0  0  0
 34 35  1  0  0  0  0
 34 36  1  0  0  0  0
 34 37  1  0  0  0  0
 20 34  1  0  0  0  0
 38 39  1  0  0  0  0
 38 40  1  0  0  0  0
 38 41  1  0  0  0  0
 19 38  1  0  0  0  0
 42 43  1  0  0  0  0
 42 44  1  0  0  0  0
 17 42  1  0  0  0  0
 45 48  2  0  0  0  0
 48 49  1  0  0  0  0
 46 49  2  0  0  0  0
 46 50  1  0  0  0  0
 47 50  2  0  0  0  0
 45 47  1  0  0  0  0
 49 53  1  0  0  0  0
 50 54  1  0  0  0  0
 46 55  1  0  0  0  0
 47 51  1  0  0  0  0
 48 52  1  0  0  0  0
 42 45  1  0  0  0  0
  7 13  1  0  0  0  0
M  END
>  <DFT-ENERGY>
-1978.32632029

$$$$
