
  CDK     08132403323D

 61 64  0  0  0  0  0  0  0  0999 V2000
   -0.8511   -1.3735    3.3072 C   0  0  0  0  0  0  0  0  0  0  0  0
    0.1448   -1.8460    3.2421 H   0  0  0  0  0  0  0  0  0  0  0  0
   -1.3755   -1.7264    4.2230 H   0  0  0  0  0  0  0  0  0  0  0  0
   -1.4542   -1.7340    2.4465 H   0  0  0  0  0  0  0  0  0  0  0  0
   -0.7669    0.1357    3.3472 C   0  0  0  0  0  0  0  0  0  0  0  0
   -1.7266    0.6632    3.5014 H   0  0  0  0  0  0  0  0  0  0  0  0
    0.3869    0.8568    3.7605 C   0  0  0  0  0  0  0  0  0  0  0  0
    1.3214    0.2809    3.8779 H   0  0  0  0  0  0  0  0  0  0  0  0
    0.2266    2.1227    4.5722 C   0  0  0  0  0  0  0  0  0  0  0  0
    1.1505    2.7302    4.6084 H   0  0  0  0  0  0  0  0  0  0  0  0
   -0.0302    1.8417    5.6164 H   0  0  0  0  0  0  0  0  0  0  0  0
   -0.6013    2.7405    4.1717 H   0  0  0  0  0  0  0  0  0  0  0  0
    1.1919    2.0278    1.9257 C   0  0  0  0  0  0  0  0  0  0  0  0
    0.8834    3.0645    2.1804 H   0  0  0  0  0  0  0  0  0  0  0  0
    2.2772    1.7870    1.9526 H   0  0  0  0  0  0  0  0  0  0  0  0
   -0.0305    0.7686    1.4104 Ru  0  0  0  0  0  0  0  0  0  0  0  0
   -1.8468    2.3459    1.5197 Cl  0  0  0  0  0  0  0  0  0  0  0  0
    1.7248   -0.8744    1.3193 Cl  0  0  0  0  0  0  0  0  0  0  0  0
   -0.2372    0.7105   -0.5822 C   0  0  0  0  0  0  0  0  0  0  0  0
    0.6301    1.1776   -1.5183 N   0  0  0  0  0  0  0  0  0  0  0  0
    0.0845    1.0281   -2.8838 C   0  0  0  0  0  0  0  0  0  0  0  0
   -1.0617    0.0297   -2.6658 C   0  0  0  0  0  0  0  0  0  0  0  0
   -1.2951    0.1503   -1.2201 N   0  0  0  0  0  0  0  0  0  0  0  0
    1.7691    2.0051   -1.2457 C   0  0  0  0  0  0  0  0  0  0  0  0
    4.0110    3.5941   -0.6506 C   0  0  0  0  0  0  0  0  0  0  0  0
    3.0583    1.4318   -1.3291 C   0  0  0  0  0  0  0  0  0  0  0  0
    1.5768    3.3694   -0.9278 C   0  0  0  0  0  0  0  0  0  0  0  0
    2.7158    4.1381   -0.6228 C   0  0  0  0  0  0  0  0  0  0  0  0
    4.1613    2.2454   -1.0225 C   0  0  0  0  0  0  0  0  0  0  0  0
    2.5808    5.2003   -0.3653 H   0  0  0  0  0  0  0  0  0  0  0  0
    5.1700    1.8062   -1.0721 H   0  0  0  0  0  0  0  0  0  0  0  0
    0.8614    0.6547   -3.5773 H   0  0  0  0  0  0  0  0  0  0  0  0
   -0.2771    2.0109   -3.2577 H   0  0  0  0  0  0  0  0  0  0  0  0
   -1.9776    0.2862   -3.2337 H   0  0  0  0  0  0  0  0  0  0  0  0
   -0.7710   -1.0141   -2.9182 H   0  0  0  0  0  0  0  0  0  0  0  0
    0.2050    3.9886   -0.9214 C   0  0  0  0  0  0  0  0  0  0  0  0
    0.2676    5.0743   -0.7186 H   0  0  0  0  0  0  0  0  0  0  0  0
   -0.4581    3.5297   -0.1567 H   0  0  0  0  0  0  0  0  0  0  0  0
   -0.3026    3.8602   -1.9002 H   0  0  0  0  0  0  0  0  0  0  0  0
    3.2394   -0.0104   -1.7172 C   0  0  0  0  0  0  0  0  0  0  0  0
    2.7102   -0.6665   -0.9958 H   0  0  0  0  0  0  0  0  0  0  0  0
    4.3109   -0.2848   -1.7235 H   0  0  0  0  0  0  0  0  0  0  0  0
    2.8315   -0.2191   -2.7286 H   0  0  0  0  0  0  0  0  0  0  0  0
    5.2148    4.4284   -0.2904 C   0  0  0  0  0  0  0  0  0  0  0  0
    6.0312    4.3033   -1.0302 H   0  0  0  0  0  0  0  0  0  0  0  0
    5.6264    4.1267    0.6961 H   0  0  0  0  0  0  0  0  0  0  0  0
    4.9635    5.5047   -0.2327 H   0  0  0  0  0  0  0  0  0  0  0  0
   -2.3493   -0.5955   -0.5531 C   0  0  0  0  0  0  0  0  0  0  0  0
   -3.3244   -0.2995   -0.9936 H   0  0  0  0  0  0  0  0  0  0  0  0
   -2.3712   -0.2301    0.4977 H   0  0  0  0  0  0  0  0  0  0  0  0
   -2.1835   -2.1025   -0.6314 C   0  0  0  0  0  0  0  0  0  0  0  0
   -1.9038   -4.9064   -0.7440 C   0  0  0  0  0  0  0  0  0  0  0  0
   -3.2681   -2.9138   -1.0095 C   0  0  0  0  0  0  0  0  0  0  0  0
   -0.9501   -2.7064   -0.3151 C   0  0  0  0  0  0  0  0  0  0  0  0
   -0.8154   -4.1008   -0.3720 C   0  0  0  0  0  0  0  0  0  0  0  0
   -3.1327   -4.3095   -1.0621 C   0  0  0  0  0  0  0  0  0  0  0  0
   -4.2317   -2.4451   -1.2645 H   0  0  0  0  0  0  0  0  0  0  0  0
   -0.0875   -2.0913   -0.0092 H   0  0  0  0  0  0  0  0  0  0  0  0
    0.1515   -4.5585   -0.1164 H   0  0  0  0  0  0  0  0  0  0  0  0
   -3.9897   -4.9318   -1.3585 H   0  0  0  0  0  0  0  0  0  0  0  0
   -1.7938   -5.9998   -0.7872 H   0  0  0  0  0  0  0  0  0  0  0  0
  1  2  1  0  0  0  0
  1  5  1  0  0  0  0
  1  3  1  0  0  0  0
  1  4  1  0  0  0  0
  5  6  1  0  0  0  0
  5 16  1  0  0  0  0
  5  7  1  0  0  0  0
  7  9  1  0  0  0  0
  7  8  1  0  0  0  0
  9 10  1  0  0  0  0
  9 11  1  0  0  0  0
  9 12  1  0  0  0  0
 13 14  1  0  0  0  0
 13 15  1  0  0  0  0
  7 13  1  0  0  0  0
 13 16  1  0  0  0  0
 16 17  1  0  0  0  0
 16 18  1  0  0  0  0
 19 20  1  0  0  0  0
 19 23  1  0  0  0  0
 20 21  1  0  0  0  0
 22 23  1  0  0  0  0
 24 27  2  0  0  0  0
 27 28  1  0  0  0  0
 25 28  2  0  0  0  0
 25 29  1  0  0  0  0
 26 29  2  0  0  0  0
 24 26  1  0  0  0  0
 28 30  1  0  0  0  0
 29 31  1  0  0  0  0
 20 24  1  0  0  0  0
 21 22  1  0  0  0  0
 21 32  1  0  0  0  0
 21 33  1  0  0  0  0
 22 34  1  0  0  0  0
 22 35  1  0  0  0  0
 36 37  1  0  0  0  0
 36 38  1  0  0  0  0
 36 39  1  0  0  0  0
 27 36  1  0  0  0  0
 40 41  1  0  0  0  0
 40 42  1  0  0  0  0
 40 43  1  0  0  0  0
 26 40  1  0  0  0  0
 44 45  1  0  0  0  0
 44 46  1  0  0  0  0
 44 47  1  0  0  0  0
 25 44  1  0  0  0  0
 48 49  1  0  0  0  0
 48 50  1  0  0  0  0
 23 48  1  0  0  0  0
 51 54  2  0  0  0  0
 54 55  1  0  0  0  0
 52 55  2  0  0  0  0
 52 56  1  0  0  0  0
 53 56  2  0  0  0  0
 51 53  1  0  0  0  0
 55 59  1  0  0  0  0
 56 60  1  0  0  0  0
 52 61  1  0  0  0  0
 53 57  1  0  0  0  0
 54 58  1  0  0  0  0
 48 51  1  0  0  0  0
 16 19  1  0  0  0  0
M  END
>  <DFT-ENERGY>
-2056.87743198

$$$$
