
  CDK     08132420313D

 71 74  0  0  0  0  0  0  0  0999 V2000
   -0.1348    3.2487   -1.5578 C   0  0  0  0  0  0  0  0  0  0  0  0
    0.8773    3.1876   -1.9953 H   0  0  0  0  0  0  0  0  0  0  0  0
   -0.6710    4.1308   -1.9740 H   0  0  0  0  0  0  0  0  0  0  0  0
   -0.7083    2.3548   -1.8849 H   0  0  0  0  0  0  0  0  0  0  0  0
   -0.1046    3.3656   -0.0514 C   0  0  0  0  0  0  0  0  0  0  0  0
   -1.0871    3.5239    0.4305 H   0  0  0  0  0  0  0  0  0  0  0  0
    1.0161    3.8055    0.7042 C   0  0  0  0  0  0  0  0  0  0  0  0
    1.9751    3.9103    0.1678 H   0  0  0  0  0  0  0  0  0  0  0  0
    0.7998    4.6551    1.9368 C   0  0  0  0  0  0  0  0  0  0  0  0
    1.6940    4.7054    2.5865 H   0  0  0  0  0  0  0  0  0  0  0  0
    0.5636    5.6918    1.6129 H   0  0  0  0  0  0  0  0  0  0  0  0
   -0.0584    4.2774    2.5266 H   0  0  0  0  0  0  0  0  0  0  0  0
    1.7520    2.0135    1.9820 C   0  0  0  0  0  0  0  0  0  0  0  0
    1.3683    2.2488    2.9978 H   0  0  0  0  0  0  0  0  0  0  0  0
    2.8487    2.0891    1.8126 H   0  0  0  0  0  0  0  0  0  0  0  0
    0.6363    1.4591    0.6456 Ru  0  0  0  0  0  0  0  0  0  0  0  0
   -1.2173    1.6183    2.1797 Cl  0  0  0  0  0  0  0  0  0  0  0  0
    2.5200    1.4113   -0.8549 Cl  0  0  0  0  0  0  0  0  0  0  0  0
   -0.2713   -1.2732   -0.3177 N   0  0  0  0  0  0  0  0  0  0  0  0
    1.0090   -1.5033    1.4140 N   0  0  0  0  0  0  0  0  0  0  0  0
    0.4610   -0.5568    0.5898 C   0  0  0  0  0  0  0  0  0  0  0  0
   -0.1912   -2.6564   -0.0711 C   0  0  0  0  0  0  0  0  0  0  0  0
    0.6258   -2.8024    1.0244 C   0  0  0  0  0  0  0  0  0  0  0  0
   -0.9953   -0.6581   -1.3990 C   0  0  0  0  0  0  0  0  0  0  0  0
   -2.3342   -0.2607   -1.1836 C   0  0  0  0  0  0  0  0  0  0  0  0
   -2.9978    0.3826   -2.2444 C   0  0  0  0  0  0  0  0  0  0  0  0
   -4.0385    0.7085   -2.0935 H   0  0  0  0  0  0  0  0  0  0  0  0
   -2.3763    0.6044   -3.4859 C   0  0  0  0  0  0  0  0  0  0  0  0
   -1.0641    0.1328   -3.6744 C   0  0  0  0  0  0  0  0  0  0  0  0
   -0.5753    0.2665   -4.6517 H   0  0  0  0  0  0  0  0  0  0  0  0
   -0.3502   -0.5099   -2.6483 C   0  0  0  0  0  0  0  0  0  0  0  0
   -3.0281   -0.5254    0.1232 C   0  0  0  0  0  0  0  0  0  0  0  0
   -2.6165    0.1245    0.9267 H   0  0  0  0  0  0  0  0  0  0  0  0
   -2.8846   -1.5736    0.4559 H   0  0  0  0  0  0  0  0  0  0  0  0
   -4.1135   -0.3320    0.0363 H   0  0  0  0  0  0  0  0  0  0  0  0
   -3.0934    1.3419   -4.5883 C   0  0  0  0  0  0  0  0  0  0  0  0
   -2.8054    0.9622   -5.5882 H   0  0  0  0  0  0  0  0  0  0  0  0
   -2.8398    2.4236   -4.5654 H   0  0  0  0  0  0  0  0  0  0  0  0
   -4.1930    1.2605   -4.4871 H   0  0  0  0  0  0  0  0  0  0  0  0
    1.0507   -1.0079   -2.8688 C   0  0  0  0  0  0  0  0  0  0  0  0
    1.7739   -0.3603   -2.3258 H   0  0  0  0  0  0  0  0  0  0  0  0
    1.3066   -0.9962   -3.9447 H   0  0  0  0  0  0  0  0  0  0  0  0
    1.1885   -2.0391   -2.4856 H   0  0  0  0  0  0  0  0  0  0  0  0
    1.8749   -1.2198    2.5269 C   0  0  0  0  0  0  0  0  0  0  0  0
    1.3037   -1.0641    3.8088 C   0  0  0  0  0  0  0  0  0  0  0  0
    2.1714   -0.7661    4.8733 C   0  0  0  0  0  0  0  0  0  0  0  0
    1.7443   -0.6359    5.8799 H   0  0  0  0  0  0  0  0  0  0  0  0
    3.5601   -0.6355    4.6874 C   0  0  0  0  0  0  0  0  0  0  0  0
    4.0868   -0.8382    3.4002 C   0  0  0  0  0  0  0  0  0  0  0  0
    5.1741   -0.7660    3.2422 H   0  0  0  0  0  0  0  0  0  0  0  0
    3.2646   -1.1388    2.2988 C   0  0  0  0  0  0  0  0  0  0  0  0
   -0.1789   -1.1952    4.0189 C   0  0  0  0  0  0  0  0  0  0  0  0
   -0.7138   -0.3623    3.5116 H   0  0  0  0  0  0  0  0  0  0  0  0
   -0.4283   -1.1712    5.0961 H   0  0  0  0  0  0  0  0  0  0  0  0
   -0.5741   -2.1392    3.5906 H   0  0  0  0  0  0  0  0  0  0  0  0
    4.4579   -0.2764    5.8452 C   0  0  0  0  0  0  0  0  0  0  0  0
    4.4135    0.8132    6.0573 H   0  0  0  0  0  0  0  0  0  0  0  0
    5.5152   -0.5297    5.6363 H   0  0  0  0  0  0  0  0  0  0  0  0
    4.1527   -0.7982    6.7740 H   0  0  0  0  0  0  0  0  0  0  0  0
    3.8412   -1.3506    0.9267 C   0  0  0  0  0  0  0  0  0  0  0  0
    3.5604   -0.5127    0.2503 H   0  0  0  0  0  0  0  0  0  0  0  0
    3.4558   -2.2793    0.4580 H   0  0  0  0  0  0  0  0  0  0  0  0
    4.9446   -1.4138    0.9682 H   0  0  0  0  0  0  0  0  0  0  0  0
   -0.9132   -3.6486   -0.9137 C   0  0  0  0  0  0  0  0  0  0  0  0
   -0.5962   -3.5939   -1.9757 H   0  0  0  0  0  0  0  0  0  0  0  0
   -0.7202   -4.6745   -0.5493 H   0  0  0  0  0  0  0  0  0  0  0  0
   -2.0096   -3.4772   -0.8963 H   0  0  0  0  0  0  0  0  0  0  0  0
    1.0998   -4.0116    1.7518 C   0  0  0  0  0  0  0  0  0  0  0  0
    2.2069   -4.0849    1.7411 H   0  0  0  0  0  0  0  0  0  0  0  0
    0.6890   -4.9258    1.2847 H   0  0  0  0  0  0  0  0  0  0  0  0
    0.7897   -3.9976    2.8171 H   0  0  0  0  0  0  0  0  0  0  0  0
  1  2  1  0  0  0  0
  1  5  1  0  0  0  0
  1  3  1  0  0  0  0
  1  4  1  0  0  0  0
  5  6  1  0  0  0  0
  5 16  1  0  0  0  0
  5  7  1  0  0  0  0
  7  9  1  0  0  0  0
  7  8  1  0  0  0  0
  9 10  1  0  0  0  0
  9 11  1  0  0  0  0
  9 12  1  0  0  0  0
 13 14  1  0  0  0  0
 13 15  1  0  0  0  0
  7 13  1  0  0  0  0
 13 16  1  0  0  0  0
 16 17  1  0  0  0  0
 16 18  1  0  0  0  0
 19 21  1  0  0  0  0
 19 22  1  0  0  0  0
 20 21  1  0  0  0  0
 20 23  1  0  0  0  0
 22 23  2  0  0  0  0
 24 25  2  0  0  0  0
 24 31  1  0  0  0  0
 25 26  1  0  0  0  0
 26 27  1  0  0  0  0
 26 28  2  0  0  0  0
 28 29  1  0  0  0  0
 29 30  1  0  0  0  0
 29 31  2  0  0  0  0
 19 24  1  0  0  0  0
 32 33  1  0  0  0  0
 32 34  1  0  0  0  0
 32 35  1  0  0  0  0
 25 32  1  0  0  0  0
 36 37  1  0  0  0  0
 36 38  1  0  0  0  0
 36 39  1  0  0  0  0
 28 36  1  0  0  0  0
 40 41  1  0  0  0  0
 40 42  1  0  0  0  0
 40 43  1  0  0  0  0
 31 40  1  0  0  0  0
 44 45  2  0  0  0  0
 44 51  1  0  0  0  0
 45 46  1  0  0  0  0
 46 47  1  0  0  0  0
 46 48  2  0  0  0  0
 48 49  1  0  0  0  0
 49 50  1  0  0  0  0
 49 51  2  0  0  0  0
 20 44  1  0  0  0  0
 52 53  1  0  0  0  0
 52 54  1  0  0  0  0
 52 55  1  0  0  0  0
 45 52  1  0  0  0  0
 56 57  1  0  0  0  0
 56 58  1  0  0  0  0
 56 59  1  0  0  0  0
 48 56  1  0  0  0  0
 60 61  1  0  0  0  0
 60 62  1  0  0  0  0
 60 63  1  0  0  0  0
 51 60  1  0  0  0  0
 64 65  1  0  0  0  0
 64 66  1  0  0  0  0
 64 67  1  0  0  0  0
 22 64  1  0  0  0  0
 68 69  1  0  0  0  0
 68 70  1  0  0  0  0
 68 71  1  0  0  0  0
 23 68  1  0  0  0  0
 16 21  1  0  0  0  0
M  END
>  <DFT-ENERGY>
-2212.76500978

$$$$
