
  CDK     08142402283D

 65 69  0  0  0  0  0  0  0  0999 V2000
   -1.1760    3.2750    0.6913 H   0  0  0  0  0  0  0  0  0  0  0  0
   -2.3907    3.1649    0.5291 C   0  0  0  0  0  0  0  0  0  0  0  0
   -2.4437    4.2765    0.5091 H   0  0  0  0  0  0  0  0  0  0  0  0
   -2.4233    2.3206   -0.7021 C   0  0  0  0  0  0  0  0  0  0  0  0
   -3.3014    1.6707   -0.8530 H   0  0  0  0  0  0  0  0  0  0  0  0
   -2.0087    2.7711   -1.6207 H   0  0  0  0  0  0  0  0  0  0  0  0
   -1.0397    1.5093    0.5904 Ru  0  0  0  0  0  0  0  0  0  0  0  0
   -2.6614    2.3760    1.7352 C   0  0  0  0  0  0  0  0  0  0  0  0
   -3.5125    1.6849    1.7511 H   0  0  0  0  0  0  0  0  0  0  0  0
   -2.3776    2.8197    2.7051 H   0  0  0  0  0  0  0  0  0  0  0  0
   -2.5408   -0.3853    0.8921 Cl  0  0  0  0  0  0  0  0  0  0  0  0
    0.8226    2.8690   -0.0736 Cl  0  0  0  0  0  0  0  0  0  0  0  0
    0.5199   -0.4565   -1.2341 N   0  0  0  0  0  0  0  0  0  0  0  0
    0.7072   -1.0320    0.8446 N   0  0  0  0  0  0  0  0  0  0  0  0
    0.1165   -0.1069    0.0267 C   0  0  0  0  0  0  0  0  0  0  0  0
    1.3454   -1.5948   -1.2100 C   0  0  0  0  0  0  0  0  0  0  0  0
    1.4692   -1.9570    0.1115 C   0  0  0  0  0  0  0  0  0  0  0  0
    0.1788    0.2585   -2.4379 C   0  0  0  0  0  0  0  0  0  0  0  0
   -1.0716    0.0009   -3.0462 C   0  0  0  0  0  0  0  0  0  0  0  0
   -1.4011    0.7376   -4.1945 C   0  0  0  0  0  0  0  0  0  0  0  0
   -2.3749    0.5541   -4.6749 H   0  0  0  0  0  0  0  0  0  0  0  0
   -0.5226    1.6879   -4.7490 C   0  0  0  0  0  0  0  0  0  0  0  0
    0.7316    1.8652   -4.1461 C   0  0  0  0  0  0  0  0  0  0  0  0
    1.4434    2.5840   -4.5811 H   0  0  0  0  0  0  0  0  0  0  0  0
    1.1140    1.1549   -2.9924 C   0  0  0  0  0  0  0  0  0  0  0  0
   -2.0015   -1.0466   -2.5018 C   0  0  0  0  0  0  0  0  0  0  0  0
   -1.4919   -2.0299   -2.4185 H   0  0  0  0  0  0  0  0  0  0  0  0
   -2.8810   -1.1712   -3.1608 H   0  0  0  0  0  0  0  0  0  0  0  0
   -2.3512   -0.7946   -1.4780 H   0  0  0  0  0  0  0  0  0  0  0  0
   -0.9287    2.4938   -5.9574 C   0  0  0  0  0  0  0  0  0  0  0  0
   -1.4338    1.8627   -6.7160 H   0  0  0  0  0  0  0  0  0  0  0  0
   -0.0574    2.9804   -6.4362 H   0  0  0  0  0  0  0  0  0  0  0  0
   -1.6448    3.2952   -5.6762 H   0  0  0  0  0  0  0  0  0  0  0  0
    2.5001    1.3375   -2.4297 C   0  0  0  0  0  0  0  0  0  0  0  0
    2.5866    0.9639   -1.3951 H   0  0  0  0  0  0  0  0  0  0  0  0
    2.7771    2.4085   -2.4203 H   0  0  0  0  0  0  0  0  0  0  0  0
    3.2460    0.8069   -3.0610 H   0  0  0  0  0  0  0  0  0  0  0  0
    0.5934   -1.0207    2.2799 C   0  0  0  0  0  0  0  0  0  0  0  0
   -0.2731   -1.9313    2.9193 C   0  0  0  0  0  0  0  0  0  0  0  0
   -0.3774   -1.8548    4.3201 C   0  0  0  0  0  0  0  0  0  0  0  0
   -1.0610   -2.5486    4.8341 H   0  0  0  0  0  0  0  0  0  0  0  0
    0.3543   -0.9250    5.0749 C   0  0  0  0  0  0  0  0  0  0  0  0
    1.2503   -0.0753    4.4004 C   0  0  0  0  0  0  0  0  0  0  0  0
    1.8675    0.6302    4.9781 H   0  0  0  0  0  0  0  0  0  0  0  0
    1.3986   -0.1094    3.0044 C   0  0  0  0  0  0  0  0  0  0  0  0
   -1.0424   -2.9905    2.1735 C   0  0  0  0  0  0  0  0  0  0  0  0
   -0.6344   -3.9977    2.4073 H   0  0  0  0  0  0  0  0  0  0  0  0
   -1.0191   -2.8363    1.0816 H   0  0  0  0  0  0  0  0  0  0  0  0
   -2.1054   -2.9820    2.4811 H   0  0  0  0  0  0  0  0  0  0  0  0
    0.1832   -0.8311    6.5702 C   0  0  0  0  0  0  0  0  0  0  0  0
   -0.5342   -0.0248    6.8341 H   0  0  0  0  0  0  0  0  0  0  0  0
    1.1396   -0.5924    7.0760 H   0  0  0  0  0  0  0  0  0  0  0  0
   -0.2103   -1.7739    6.9969 H   0  0  0  0  0  0  0  0  0  0  0  0
    2.4148    0.7623    2.3154 C   0  0  0  0  0  0  0  0  0  0  0  0
    1.9429    1.5711    1.7187 H   0  0  0  0  0  0  0  0  0  0  0  0
    3.0327    0.1755    1.6043 H   0  0  0  0  0  0  0  0  0  0  0  0
    3.0904    1.2299    3.0558 H   0  0  0  0  0  0  0  0  0  0  0  0
    1.8960   -2.2001   -2.4534 C   0  0  0  0  0  0  0  0  0  0  0  0
    2.5983   -1.5157   -2.9714 H   0  0  0  0  0  0  0  0  0  0  0  0
    2.4381   -3.1342   -2.2161 H   0  0  0  0  0  0  0  0  0  0  0  0
    1.0889   -2.4426   -3.1747 H   0  0  0  0  0  0  0  0  0  0  0  0
    2.2300   -3.0547    0.7685 C   0  0  0  0  0  0  0  0  0  0  0  0
    2.8984   -2.6612    1.5615 H   0  0  0  0  0  0  0  0  0  0  0  0
    2.8523   -3.5875    0.0258 H   0  0  0  0  0  0  0  0  0  0  0  0
    1.5573   -3.7947    1.2483 H   0  0  0  0  0  0  0  0  0  0  0  0
  1  2  1  0  0  0  0
  1  7  1  0  0  0  0
  2  3  1  0  0  0  0
  2  4  1  0  0  0  0
  4  5  1  0  0  0  0
  6  4  1  0  0  0  0
  7  8  1  0  0  0  0
  7  4  1  0  0  0  0
  8  2  1  0  0  0  0
  8  9  1  0  0  0  0
 10  8  1  0  0  0  0
  7 11  1  0  0  0  0
  7 12  1  0  0  0  0
 13 15  1  0  0  0  0
 13 16  1  0  0  0  0
 14 15  1  0  0  0  0
 14 17  1  0  0  0  0
 16 17  2  0  0  0  0
 18 19  2  0  0  0  0
 18 25  1  0  0  0  0
 19 20  1  0  0  0  0
 20 21  1  0  0  0  0
 20 22  2  0  0  0  0
 22 23  1  0  0  0  0
 23 24  1  0  0  0  0
 23 25  2  0  0  0  0
 13 18  1  0  0  0  0
 26 27  1  0  0  0  0
 26 28  1  0  0  0  0
 26 29  1  0  0  0  0
 19 26  1  0  0  0  0
 30 31  1  0  0  0  0
 30 32  1  0  0  0  0
 30 33  1  0  0  0  0
 22 30  1  0  0  0  0
 34 35  1  0  0  0  0
 34 36  1  0  0  0  0
 34 37  1  0  0  0  0
 25 34  1  0  0  0  0
 38 39  2  0  0  0  0
 38 45  1  0  0  0  0
 39 40  1  0  0  0  0
 40 41  1  0  0  0  0
 40 42  2  0  0  0  0
 42 43  1  0  0  0  0
 43 44  1  0  0  0  0
 43 45  2  0  0  0  0
 14 38  1  0  0  0  0
 46 47  1  0  0  0  0
 46 48  1  0  0  0  0
 46 49  1  0  0  0  0
 39 46  1  0  0  0  0
 50 51  1  0  0  0  0
 50 52  1  0  0  0  0
 50 53  1  0  0  0  0
 42 50  1  0  0  0  0
 54 55  1  0  0  0  0
 54 56  1  0  0  0  0
 54 57  1  0  0  0  0
 45 54  1  0  0  0  0
 58 59  1  0  0  0  0
 58 60  1  0  0  0  0
 58 61  1  0  0  0  0
 16 58  1  0  0  0  0
 62 63  1  0  0  0  0
 62 64  1  0  0  0  0
 62 65  1  0  0  0  0
 17 62  1  0  0  0  0
  7 15  1  0  0  0  0
M  END
>  <DFT-ENERGY>
-2134.20851935

$$$$
