DMIMes-1_A2
  CDK     08132410413D

 79 83  0  0  0  0  0  0  0  0999 V2000
    1.0230    0.3470   -0.1992 Ru  0  0  0  0  0  0  0  0  0  0  0  0
    2.8008    0.3470   -1.5884 O   0  0  0  0  0  0  0  0  0  0  0  0
    2.2332    1.2803    0.8049 C   0  0  0  0  0  0  0  0  0  0  0  0
    2.0004    1.5732    1.8276 H   0  0  0  0  0  0  0  0  0  0  0  0
    3.0363   -0.4282   -2.8142 C   0  0  0  0  0  0  0  0  0  0  0  0
    3.4479    0.2710   -3.5723 H   0  0  0  0  0  0  0  0  0  0  0  0
    1.6148   -0.8684   -3.1341 C   0  0  0  0  0  0  0  0  0  0  0  0
    1.5455   -1.3672   -4.1033 H   0  0  0  0  0  0  0  0  0  0  0  0
    1.2253   -1.5631   -2.3617 H   0  0  0  0  0  0  0  0  0  0  0  0
    0.9279    0.0033   -3.1405 H   0  0  0  0  0  0  0  0  0  0  0  0
    3.9736   -1.5752   -2.4799 C   0  0  0  0  0  0  0  0  0  0  0  0
    5.0069   -1.2467   -2.3279 H   0  0  0  0  0  0  0  0  0  0  0  0
    3.6521   -2.0589   -1.5362 H   0  0  0  0  0  0  0  0  0  0  0  0
    3.9685   -2.3459   -3.2567 H   0  0  0  0  0  0  0  0  0  0  0  0
    3.7930    1.1454   -1.0834 C   0  0  0  0  0  0  0  0  0  0  0  0
    4.9621    1.4941   -1.7364 C   0  0  0  0  0  0  0  0  0  0  0  0
    5.1807    1.1438   -2.7422 H   0  0  0  0  0  0  0  0  0  0  0  0
    5.8633    2.3252   -1.0789 C   0  0  0  0  0  0  0  0  0  0  0  0
    6.7856    2.6128   -1.5876 H   0  0  0  0  0  0  0  0  0  0  0  0
    5.6133    2.7968    0.2064 C   0  0  0  0  0  0  0  0  0  0  0  0
    6.3379    3.4414    0.7005 H   0  0  0  0  0  0  0  0  0  0  0  0
    4.4436    2.4365    0.8480 C   0  0  0  0  0  0  0  0  0  0  0  0
    4.2504    2.7911    1.8593 H   0  0  0  0  0  0  0  0  0  0  0  0
    3.5081    1.6211    0.2086 C   0  0  0  0  0  0  0  0  0  0  0  0
    1.6158   -1.8198    0.3546 Cl  0  0  0  0  0  0  0  0  0  0  0  0
    0.2038    2.0447   -1.5519 Cl  0  0  0  0  0  0  0  0  0  0  0  0
   -0.9284    0.7935    2.1847 N   0  0  0  0  0  0  0  0  0  0  0  0
   -1.7837   -0.3362    0.4823 N   0  0  0  0  0  0  0  0  0  0  0  0
   -0.5957    0.3002    0.9148 C   0  0  0  0  0  0  0  0  0  0  0  0
   -2.2870    0.4737    2.5309 C   0  0  0  0  0  0  0  0  0  0  0  0
   -2.8174   -0.2293    1.4708 C   0  0  0  0  0  0  0  0  0  0  0  0
   -0.0879    1.5333    3.0943 C   0  0  0  0  0  0  0  0  0  0  0  0
    0.6637    0.8367    4.0691 C   0  0  0  0  0  0  0  0  0  0  0  0
    1.3710    1.5749    5.0264 C   0  0  0  0  0  0  0  0  0  0  0  0
    1.9420    1.0513    5.7901 H   0  0  0  0  0  0  0  0  0  0  0  0
    1.3578    2.9765    5.0026 C   0  0  0  0  0  0  0  0  0  0  0  0
    0.6615    3.6539    3.9895 C   0  0  0  0  0  0  0  0  0  0  0  0
    0.6849    4.7410    3.9531 H   0  0  0  0  0  0  0  0  0  0  0  0
   -0.0555    2.9464    3.0184 C   0  0  0  0  0  0  0  0  0  0  0  0
    0.7303   -0.6520    4.0431 C   0  0  0  0  0  0  0  0  0  0  0  0
    1.0893   -1.0074    3.0521 H   0  0  0  0  0  0  0  0  0  0  0  0
   -0.2561   -1.1115    4.1975 H   0  0  0  0  0  0  0  0  0  0  0  0
    1.4122   -1.0680    4.7943 H   0  0  0  0  0  0  0  0  0  0  0  0
    2.1018    3.7576    6.0361 C   0  0  0  0  0  0  0  0  0  0  0  0
    2.4651    3.1336    6.8632 H   0  0  0  0  0  0  0  0  0  0  0  0
    1.4746    4.5450    6.4781 H   0  0  0  0  0  0  0  0  0  0  0  0
    2.9804    4.2536    5.5966 H   0  0  0  0  0  0  0  0  0  0  0  0
   -0.7377    3.6525    1.8975 C   0  0  0  0  0  0  0  0  0  0  0  0
   -0.3675    3.2754    0.9178 H   0  0  0  0  0  0  0  0  0  0  0  0
   -0.5701    4.7361    1.9016 H   0  0  0  0  0  0  0  0  0  0  0  0
   -1.8236    3.4831    1.9031 H   0  0  0  0  0  0  0  0  0  0  0  0
   -2.0059   -1.0226   -0.7707 C   0  0  0  0  0  0  0  0  0  0  0  0
   -1.7749   -2.4168   -0.8567 C   0  0  0  0  0  0  0  0  0  0  0  0
   -2.0703   -3.0817   -2.0561 C   0  0  0  0  0  0  0  0  0  0  0  0
   -1.8861   -4.1516   -2.1277 H   0  0  0  0  0  0  0  0  0  0  0  0
   -2.5930   -2.3882   -3.1539 C   0  0  0  0  0  0  0  0  0  0  0  0
   -2.8269   -1.0096   -3.0552 C   0  0  0  0  0  0  0  0  0  0  0  0
   -3.2318   -0.4684   -3.9079 H   0  0  0  0  0  0  0  0  0  0  0  0
   -2.5429   -0.3122   -1.8735 C   0  0  0  0  0  0  0  0  0  0  0  0
   -1.2400   -3.2114    0.2861 C   0  0  0  0  0  0  0  0  0  0  0  0
   -0.9257   -2.5940    1.1424 H   0  0  0  0  0  0  0  0  0  0  0  0
   -0.3311   -3.7650   -0.0109 H   0  0  0  0  0  0  0  0  0  0  0  0
   -1.9723   -3.9425    0.6496 H   0  0  0  0  0  0  0  0  0  0  0  0
   -2.9080   -3.1036   -4.4274 C   0  0  0  0  0  0  0  0  0  0  0  0
   -2.3377   -2.6846   -5.2695 H   0  0  0  0  0  0  0  0  0  0  0  0
   -3.9738   -3.0127   -4.6823 H   0  0  0  0  0  0  0  0  0  0  0  0
   -2.6763   -4.1757   -4.3836 H   0  0  0  0  0  0  0  0  0  0  0  0
   -2.8298    1.1499   -1.8197 C   0  0  0  0  0  0  0  0  0  0  0  0
   -2.4620    1.6371   -0.9029 H   0  0  0  0  0  0  0  0  0  0  0  0
   -3.9037    1.3562   -1.9030 H   0  0  0  0  0  0  0  0  0  0  0  0
   -2.3204    1.6809   -2.6441 H   0  0  0  0  0  0  0  0  0  0  0  0
   -2.8935    0.8794    3.8130 C   0  0  0  0  0  0  0  0  0  0  0  0
   -2.8923    1.9753    3.9306 H   0  0  0  0  0  0  0  0  0  0  0  0
   -3.9350    0.5387    3.8966 H   0  0  0  0  0  0  0  0  0  0  0  0
   -2.3392    0.4662    4.6713 H   0  0  0  0  0  0  0  0  0  0  0  0
   -4.1614   -0.8054    1.2765 C   0  0  0  0  0  0  0  0  0  0  0  0
   -4.6571   -0.3761    0.3901 H   0  0  0  0  0  0  0  0  0  0  0  0
   -4.8137   -0.6255    2.1419 H   0  0  0  0  0  0  0  0  0  0  0  0
   -4.1112   -1.8953    1.1174 H   0  0  0  0  0  0  0  0  0  0  0  0
  1  2  1  0  0  0  0
  1  3  2  0  0  0  0
  3  4  1  0  0  0  0
  2  5  1  0  0  0  0
  5  6  1  0  0  0  0
  5  7  1  0  0  0  0
  7  8  1  0  0  0  0
  7  9  1  0  0  0  0
  7 10  1  0  0  0  0
  5 11  1  0  0  0  0
 11 12  1  0  0  0  0
 11 13  1  0  0  0  0
 11 14  1  0  0  0  0
  2 15  1  0  0  0  0
 15 24  1  0  0  0  0
 15 16  2  0  0  0  0
 16 17  1  0  0  0  0
 16 18  1  0  0  0  0
 18 19  1  0  0  0  0
 18 20  2  0  0  0  0
 20 21  1  0  0  0  0
 20 22  1  0  0  0  0
 22 24  2  0  0  0  0
 22 23  1  0  0  0  0
  3 24  1  0  0  0  0
  1 25  1  0  0  0  0
  1 26  1  0  0  0  0
 27 29  1  0  0  0  0
 27 30  1  0  0  0  0
 28 29  1  0  0  0  0
 28 31  1  0  0  0  0
 30 31  2  0  0  0  0
  1 29  1  0  0  0  0
 32 33  2  0  0  0  0
 32 39  1  0  0  0  0
 33 34  1  0  0  0  0
 34 35  1  0  0  0  0
 34 36  2  0  0  0  0
 36 37  1  0  0  0  0
 37 38  1  0  0  0  0
 37 39  2  0  0  0  0
 27 32  1  0  0  0  0
 40 41  1  0  0  0  0
 40 42  1  0  0  0  0
 40 43  1  0  0  0  0
 33 40  1  0  0  0  0
 44 45  1  0  0  0  0
 44 46  1  0  0  0  0
 44 47  1  0  0  0  0
 36 44  1  0  0  0  0
 48 49  1  0  0  0  0
 48 50  1  0  0  0  0
 48 51  1  0  0  0  0
 39 48  1  0  0  0  0
 52 53  2  0  0  0  0
 52 59  1  0  0  0  0
 53 54  1  0  0  0  0
 54 55  1  0  0  0  0
 54 56  2  0  0  0  0
 56 57  1  0  0  0  0
 57 58  1  0  0  0  0
 57 59  2  0  0  0  0
 28 52  1  0  0  0  0
 60 61  1  0  0  0  0
 60 62  1  0  0  0  0
 60 63  1  0  0  0  0
 53 60  1  0  0  0  0
 64 65  1  0  0  0  0
 64 66  1  0  0  0  0
 64 67  1  0  0  0  0
 56 64  1  0  0  0  0
 68 69  1  0  0  0  0
 68 70  1  0  0  0  0
 68 71  1  0  0  0  0
 59 68  1  0  0  0  0
 72 73  1  0  0  0  0
 72 74  1  0  0  0  0
 72 75  1  0  0  0  0
 30 72  1  0  0  0  0
 76 77  1  0  0  0  0
 76 78  1  0  0  0  0
 76 79  1  0  0  0  0
 31 76  1  0  0  0  0
M  END
> <FrozenCore-PM6_ENERGY>
-8.313

> <RMSD_CONF_CG-CS>
2.919510

> <RMSD_CONF_GO-CS>
0.000000

> <UID>


> <DESCRIPTOR_DEFINITION_1>
desc1=( echo "1 * ( e( $hartree_to_kcalmol * ( ( $freeEnergyZ - $freeEnergyD ) - ( $freeEnergyX + 2*$G_Ethene - $freeEnergyD - 2*$G_Propene ) - $DDG_reference_HGII ) / $kT ) ) " | bc -l )

> <DESCRIPTOR_DEFINITION_2>
desc1=( echo "1 * ( e( $hartree_to_kcalmol * ( ( $freeEnergyZ - $freeEnergyD ) - ( $freeEnergyX + 2*$G_Ethene - $freeEnergyD - 2*$G_Propene ) - $DDG_reference_HGII ) / $kT ) ) " | bc -l )

> <DESCRIPTOR_DEFINITION_3>
desc1=( echo "1 * ( e( $hartree_to_kcalmol * ( ( $freeEnergyZ - $freeEnergyD ) - ( $freeEnergyX + 2*$G_Ethene - $freeEnergyD - 2*$G_Propene ) - $DDG_reference_HGII ) / $kT ) ) " | bc -l )

> <WEIGHT_DEFINITION_1>
w1=$( echo "1 / ( 1 + e( $hartree_to_kcalmol * ( ( ( $freeEnergyX + 2*$G_Ethene - $freeEnergyD - 2*$G_Propene ) ) - ( $DG_referenceProductionBarrier + $magnitude4 ) ) / $kT ) )" | bc -l )

> <WEIGHT_DEFINITION_2>
w1=$( echo "1 / ( 1 + e( $hartree_to_kcalmol * ( ( ( $freeEnergyX + 2*$G_Ethene - $freeEnergyD - 2*$G_Propene ) ) - ( $DG_referenceProductionBarrier + $magnitude4 ) ) / $kT ) )" | bc -l )

> <WEIGHT_DEFINITION_3>
w1=$( echo "1 / ( 1 + e( $hartree_to_kcalmol * ( ( ( $freeEnergyX + 2*$G_Ethene - $freeEnergyD - 2*$G_Propene ) ) - ( $DG_referenceProductionBarrier + $magnitude4 ) ) / $kT ) )" | bc -l )

> <WEIGHT_DEFINITION_4>
w1=$( echo "1 / ( 1 + e( $hartree_to_kcalmol * ( ( ( $freeEnergyX + 2*$G_Ethene - $freeEnergyD - 2*$G_Propene ) ) - ( $DG_referenceProductionBarrier + $magnitude4 ) ) / $kT ) )" | bc -l )

> <CALCULATION_OF_OVERALL_FITNESS>
fitness=$( echo "( $desc1 + $desc2 + $desc3 ) * ( $w1 * $w2 * $w3 * $w4 )" | bc -l )

> <freeEnergyA>
-2479.48428413

> <freeEnergyF>
-2479.46637103

> <freeEnergyE>
-2479.48428413

> <freeEnergyC>
-2134.22734493

> <freeEnergyL>
-1001.62019419

> <freeEnergyX>
-2212.76500968

> <freeEnergyZ>
-2134.20851889

> <freeEnergyD>
-2134.2543679

> <G_Propene>
-117.738020895

> <G_Ethene>
-78.4716324751

> <G_HoveydaProd>
-502.204109499

> <G_SIMes>
-924.27249048

> <G_HG_RuCl2_SIMes>
-2402.13728523

> <DG_referenceProductionBarrier>
0.01468968

> <DG_referencePrecursorStabilityHII>
-0.0052201621

> <DG_referencePrecursorStabilityHI>
0.0117775312

> <DDG_referencePrecursorStability>
.0169976933

> <DG_referenceSynt>
0.0226072217

> <hartree_to_kcalmol>
627.49467516

> <boltzmann_constant>
0.0000000000000000000000138066

> <avogadro_number>
602214000000000000000000

> <jmol_to_kcalmol>
0.00023901

> <temp>
313.15

> <kT>
.6223089948281258706000000000

> <magnitude1>
1.43290809

> <magnitude2>
2.86581618

> <magnitude3>
4.29872427

> <magnitude4>
5.73163236

> <DFT_IDENTIFIER>
1723606872025

> <DFT_MACHINE>
158.39.114.73

> <XTB_IDENTIFIER>
NREC

> <XTB_MACHINE>
NREC

> <DESCRIPTOR_1>
4.45939425801741800743

> <DESCRIPTOR_2>
14.880377477509417032

> <DESCRIPTOR_3>
.085568311378193400

> <WEIGHT_1>
.99991284793236125720

> <WEIGHT_2>
.99999998643986814280

> <WEIGHT_3>
.99999999997437592958

> <WEIGHT_4>
.99999856914288521264

> <FITNESS>
19.42361903200717252251

$$$$
