CEBHEWMODN4_A2
  CDK     02052410473D

 60 64  0  0  0  0  0  0  0  0999 V2000
   -0.9439   -0.4784    0.1771 Ru  0  0  0  0  0  0  0  0  0  0  0  0
   -2.7182   -0.5879   -1.2121 O   0  0  0  0  0  0  0  0  0  0  0  0
   -2.0943   -1.4845    1.1812 C   0  0  0  0  0  0  0  0  0  0  0  0
   -1.8439   -1.7625    2.2039 H   0  0  0  0  0  0  0  0  0  0  0  0
   -3.0010    0.1713   -2.4379 C   0  0  0  0  0  0  0  0  0  0  0  0
   -3.3636   -0.5488   -3.2014 H   0  0  0  0  0  0  0  0  0  0  0  0
   -1.6075    0.7012   -2.7524 C   0  0  0  0  0  0  0  0  0  0  0  0
   -1.2697    1.4204   -1.9803 H   0  0  0  0  0  0  0  0  0  0  0  0
   -0.8723   -0.1277   -2.7718 H   0  0  0  0  0  0  0  0  0  0  0  0
   -1.5735    1.2094   -3.7201 H   0  0  0  0  0  0  0  0  0  0  0  0
   -4.0090    1.2580   -2.1094 C   0  0  0  0  0  0  0  0  0  0  0  0
   -5.0197    0.8650   -1.9570 H   0  0  0  0  0  0  0  0  0  0  0  0
   -3.7224    1.7670   -1.1682 H   0  0  0  0  0  0  0  0  0  0  0  0
   -4.0540    2.0236   -2.8904 H   0  0  0  0  0  0  0  0  0  0  0  0
   -3.6594   -1.4459   -0.7071 C   0  0  0  0  0  0  0  0  0  0  0  0
   -4.8048   -1.8660   -1.3601 C   0  0  0  0  0  0  0  0  0  0  0  0
   -5.0449   -1.5294   -2.3660 H   0  0  0  0  0  0  0  0  0  0  0  0
   -5.6531   -2.7510   -0.7026 C   0  0  0  0  0  0  0  0  0  0  0  0
   -6.5565   -3.0949   -1.2113 H   0  0  0  0  0  0  0  0  0  0  0  0
   -5.3746   -3.2064    0.5827 C   0  0  0  0  0  0  0  0  0  0  0  0
   -6.0586   -3.8941    1.0773 H   0  0  0  0  0  0  0  0  0  0  0  0
   -4.2292   -2.7747    1.2243 C   0  0  0  0  0  0  0  0  0  0  0  0
   -4.0146   -3.1167    2.2356 H   0  0  0  0  0  0  0  0  0  0  0  0
   -3.3458   -1.9031    0.5849 C   0  0  0  0  0  0  0  0  0  0  0  0
   -1.6690    1.6476    0.7309 Cl  0  0  0  0  0  0  0  0  0  0  0  0
   -0.0223   -2.1214   -1.1747 Cl  0  0  0  0  0  0  0  0  0  0  0  0
    0.7215   -0.4910    1.6188 P   0  0  0  0  0  0  0  0  0  0  0  0
    0.2702   -0.2738    5.7458 C   0  0  0  0  0  0  0  0  0  0  0  0
    2.1158    0.6004    0.9931 C   0  0  0  0  0  0  0  0  0  0  0  0
    0.0680    1.4590    3.5555 C   0  0  0  0  0  0  0  0  0  0  0  0
    0.5097   -0.7526    4.4521 C   0  0  0  0  0  0  0  0  0  0  0  0
    1.5935   -2.1267    1.9232 C   0  0  0  0  0  0  0  0  0  0  0  0
    0.4103    0.1182    3.3656 C   0  0  0  0  0  0  0  0  0  0  0  0
    2.2983    0.6490   -0.3908 C   0  0  0  0  0  0  0  0  0  0  0  0
   -0.1688    1.9332    4.8518 C   0  0  0  0  0  0  0  0  0  0  0  0
    0.9370   -3.3151    1.6040 C   0  0  0  0  0  0  0  0  0  0  0  0
    2.9428    1.3217    1.8539 C   0  0  0  0  0  0  0  0  0  0  0  0
    3.5304   -3.3679    2.6615 C   0  0  0  0  0  0  0  0  0  0  0  0
    1.5844   -4.5399    1.8204 C   0  0  0  0  0  0  0  0  0  0  0  0
    3.3355    1.4278   -0.9192 C   0  0  0  0  0  0  0  0  0  0  0  0
    4.1719    2.1532   -0.0646 C   0  0  0  0  0  0  0  0  0  0  0  0
    3.9748    2.1029    1.3192 C   0  0  0  0  0  0  0  0  0  0  0  0
    2.8887   -2.1436    2.4472 C   0  0  0  0  0  0  0  0  0  0  0  0
    2.8778   -4.5658    2.3474 C   0  0  0  0  0  0  0  0  0  0  0  0
   -0.0675    1.0685    5.9456 C   0  0  0  0  0  0  0  0  0  0  0  0
    0.3459   -0.9487    6.5963 H   0  0  0  0  0  0  0  0  0  0  0  0
   -0.0325    2.1570    2.7153 H   0  0  0  0  0  0  0  0  0  0  0  0
    0.7724   -1.8063    4.3277 H   0  0  0  0  0  0  0  0  0  0  0  0
    1.6537    0.0857   -1.0835 H   0  0  0  0  0  0  0  0  0  0  0  0
   -0.4412    2.9769    5.0033 H   0  0  0  0  0  0  0  0  0  0  0  0
   -0.0730   -3.3251    1.1716 H   0  0  0  0  0  0  0  0  0  0  0  0
    2.8043    1.3013    2.9375 H   0  0  0  0  0  0  0  0  0  0  0  0
    4.5405   -3.3890    3.0657 H   0  0  0  0  0  0  0  0  0  0  0  0
    1.0794   -5.4697    1.5624 H   0  0  0  0  0  0  0  0  0  0  0  0
    3.4895    1.4671   -1.9967 H   0  0  0  0  0  0  0  0  0  0  0  0
    4.9772    2.7598   -0.4779 H   0  0  0  0  0  0  0  0  0  0  0  0
    4.6235    2.6727    1.9823 H   0  0  0  0  0  0  0  0  0  0  0  0
    3.4232   -1.2232    2.6910 H   0  0  0  0  0  0  0  0  0  0  0  0
    3.3819   -5.5181    2.5088 H   0  0  0  0  0  0  0  0  0  0  0  0
   -0.2549    1.4392    6.9528 H   0  0  0  0  0  0  0  0  0  0  0  0
  1  2  1  0  0  0  0
  1  3  2  0  0  0  0
  3  4  1  0  0  0  0
  2  5  1  0  0  0  0
  5  6  1  0  0  0  0
  5  7  1  0  0  0  0
  7  8  1  0  0  0  0
  7  9  1  0  0  0  0
  7 10  1  0  0  0  0
  5 11  1  0  0  0  0
 11 12  1  0  0  0  0
 11 13  1  0  0  0  0
 11 14  1  0  0  0  0
  2 15  1  0  0  0  0
 15 24  1  0  0  0  0
 15 16  2  0  0  0  0
 16 17  1  0  0  0  0
 16 18  1  0  0  0  0
 18 19  1  0  0  0  0
 18 20  2  0  0  0  0
 20 21  1  0  0  0  0
 20 22  1  0  0  0  0
 22 24  2  0  0  0  0
 22 23  1  0  0  0  0
  3 24  1  0  0  0  0
  1 25  1  0  0  0  0
  1 26  1  0  0  0  0
 28 31  1  0  0  0  0
 27 29  1  0  0  0  0
 30 33  1  0  0  0  0
 31 33  2  0  0  0  0
 27 32  1  0  0  0  0
 27 33  1  0  0  0  0
 29 34  1  0  0  0  0
 30 35  2  0  0  0  0
 32 36  2  0  0  0  0
 29 37  2  0  0  0  0
 38 43  2  0  0  0  0
 36 39  1  0  0  0  0
 34 40  2  0  0  0  0
 40 41  1  0  0  0  0
 37 42  1  0  0  0  0
 32 43  1  0  0  0  0
 38 44  1  0  0  0  0
 28 45  2  0  0  0  0
 28 46  1  0  0  0  0
 30 47  1  0  0  0  0
 31 48  1  0  0  0  0
 34 49  1  0  0  0  0
 35 50  1  0  0  0  0
 36 51  1  0  0  0  0
 37 52  1  0  0  0  0
 38 53  1  0  0  0  0
 39 54  1  0  0  0  0
 40 55  1  0  0  0  0
 41 56  1  0  0  0  0
 42 57  1  0  0  0  0
 43 58  1  0  0  0  0
 44 59  1  0  0  0  0
 45 60  1  0  0  0  0
 35 45  1  0  0  0  0
 39 44  2  0  0  0  0
 41 42  2  0  0  0  0
  1 27  1  0  0  0  0
M  END
> <FrozenCore-PM6_ENERGY>
740.184

> <RMSD_CONF_CG-CS>
2.858745

> <RMSD_CONF_GO-CS>
0.000000

> <UID>


> <freeEnergyA>
-2513.17699729

> <freeEnergyF>
-2513.15935535

> <freeEnergyE>
-2513.17699729

> <freeEnergyC>
-2167.88653588

> <freeEnergyL>
-1035.34016628

> <freeEnergyX>
-2246.43500667

> <freeEnergyZ>
-2167.89988437

> <freeEnergyD>
-2167.92026364

> <G_Propene>
-117.738020895

> <G_Ethene>
-78.4716324751

> <G_HoveydaProd>
-502.204109499

> <G_SIMes>
-924.27249048

> <G_HG_RuCl2_SIMes>
-2402.13728523

> <DG_referenceProductionBarrier>
0.01468968

> <hartree_to_kcalmol>
627.49467516

> <DFT_IDENTIFIER>
1707196697526

> <DFT_MACHINE>
158.36.42.38

> <XTB_IDENTIFIER>
NREC

> <XTB_MACHINE>
NREC

> <DE_Synth>
17.5470979475586984

> <DESCRIPTOR_DEFINITION_1>
desc1=( echo "1 * ( e( $hartree_to_kcalmol * ( ( $freeEnergyZ - $freeEnergyD ) - ( $freeEnergyX + 2*$G_Ethene - $freeEnergyD - 2*$G_Propene ) - $DDG_reference_HGII ) / $kT ) ) " | bc -l )

> <DESCRIPTOR_DEFINITION_2>
desc2=$( echo "1 * ( $hartree_to_kcalmol * ( ( $freeEnergyZ - $freeEnergyD ) - ( $freeEnergyX + 2*$G_Ethene - $freeEnergyD - 2*$G_Propene ) ) )" | bc -l )

> <DESCRIPTOR_DEFINITION_3>
desc3=$( echo "1 * $hartree_to_kcalmol * ( $DG_referenceProductionBarrier - ( $freeEnergyX + 2*$G_Ethene - $freeEnergyD - 2*$G_Propene ) )" | bc -l )

> <WEIGHT_DEFINITION_1>
w1=$( echo "1 / ( 1 + e( $hartree_to_kcalmol * ( ( ( $freeEnergyX + 2*$G_Ethene - $freeEnergyD - 2*$G_Propene ) ) - ( $DG_referenceProductionBarrier + $magnitude4 ) ) / $kT ) )" | bc -l )

> <WEIGHT_DEFINITION_2>
w2=$( echo "1 / ( 1 + e( $hartree_to_kcalmol * ( ABS( $freeEnergyC + $G_HoveydaProd - $freeEnergyA - 2*${G_Ethene} - $DG_referencePrecursorStabilityHII ) - ( $DDG_referencePrecursorStability + $magnitude1 ) ) / $kT ) )" | bc -l )

> <WEIGHT_DEFINITION_3>
w3=$( echo "1 / ( 1 + e( $hartree_to_kcalmol * ( ( $freeEnergyE + $G_PCy3 - $G_HI_precursor - $freeEnergyL ) - $magnitude1 ) / $kT ) )" | bc -l )

> <WEIGHT_DEFINITION_4>
w4=$( echo "1 / ( 1 + e( $hartree_to_kcalmol * ( - ( $freeEnergyF - $freeEnergyA ) + $magnitude2 ) / $kT ) )" | bc -l )

> <FITNESS_DEFINITION>
fitness=$( echo "( $desc1 + $desc2 + $desc3 ) * $w1 * $w2 * $w3 * $w4" | bc -l )

> <DESCRIPTOR_1>
.00000000195761296233

> <DESCRIPTOR_2>
1.471763786299708632

> <DESCRIPTOR_3>
2.659080847878143400

> <WEIGHT_1>
.99999860580849993365

> <WEIGHT_2>
.00000015413795749476

> <WEIGHT_3>
.04316550271437428901

> <WEIGHT_4>
.99999811920837923895

> <FITNESS>
.00000002748424693268

$$$$
