SIMesBr-5_A1
  CDK     08262409483D

 75 79  0  0  0  0  0  0  0  0999 V2000
   -0.7029    0.6545   -0.6073 Ru  0  0  0  0  0  0  0  0  0  0  0  0
   -2.4807    2.0437   -0.6073 O   0  0  0  0  0  0  0  0  0  0  0  0
   -1.9131   -0.3496    0.3260 C   0  0  0  0  0  0  0  0  0  0  0  0
   -1.6803   -1.3723    0.6189 H   0  0  0  0  0  0  0  0  0  0  0  0
   -2.7162    3.2695   -1.3825 C   0  0  0  0  0  0  0  0  0  0  0  0
   -3.0975    4.0346   -0.6730 H   0  0  0  0  0  0  0  0  0  0  0  0
   -1.2976    3.5611   -1.8513 C   0  0  0  0  0  0  0  0  0  0  0  0
   -1.2223    4.5277   -2.3564 H   0  0  0  0  0  0  0  0  0  0  0  0
   -0.9338    2.7827   -2.5526 H   0  0  0  0  0  0  0  0  0  0  0  0
   -0.5925    3.5645   -0.9946 H   0  0  0  0  0  0  0  0  0  0  0  0
   -3.6848    2.9565   -2.5078 C   0  0  0  0  0  0  0  0  0  0  0  0
   -3.3976    2.0125   -3.0097 H   0  0  0  0  0  0  0  0  0  0  0  0
   -3.6823    3.7396   -3.2736 H   0  0  0  0  0  0  0  0  0  0  0  0
   -4.7144    2.8248   -2.1593 H   0  0  0  0  0  0  0  0  0  0  0  0
   -3.4729    1.5387    0.1911 C   0  0  0  0  0  0  0  0  0  0  0  0
   -4.6420    2.1917    0.5400 C   0  0  0  0  0  0  0  0  0  0  0  0
   -4.8604    3.1989    0.1913 H   0  0  0  0  0  0  0  0  0  0  0  0
   -5.5432    1.5342    1.3710 C   0  0  0  0  0  0  0  0  0  0  0  0
   -6.4664    2.0435    1.6590 H   0  0  0  0  0  0  0  0  0  0  0  0
   -5.2932    0.2489    1.8425 C   0  0  0  0  0  0  0  0  0  0  0  0
   -6.0179   -0.2454    2.4878 H   0  0  0  0  0  0  0  0  0  0  0  0
   -4.1235   -0.3927    1.4822 C   0  0  0  0  0  0  0  0  0  0  0  0
   -3.9303   -1.4040    1.8368 H   0  0  0  0  0  0  0  0  0  0  0  0
   -3.1880    0.2467    0.6668 C   0  0  0  0  0  0  0  0  0  0  0  0
   -1.4078   -0.1768   -2.8569 Br  0  0  0  0  0  0  0  0  0  0  0  0
    0.1359    1.9297    1.3621 Br  0  0  0  0  0  0  0  0  0  0  0  0
    2.0761   -0.0476   -1.2689 N   0  0  0  0  0  0  0  0  0  0  0  0
    1.2398   -1.6998   -0.0329 N   0  0  0  0  0  0  0  0  0  0  0  0
    0.9267   -0.4780   -0.6069 C   0  0  0  0  0  0  0  0  0  0  0  0
    3.2389   -0.9951   -1.1395 C   0  0  0  0  0  0  0  0  0  0  0  0
    2.6611   -2.1382   -0.2867 C   0  0  0  0  0  0  0  0  0  0  0  0
    2.2869    1.1519   -2.0423 C   0  0  0  0  0  0  0  0  0  0  0  0
    2.8137    2.3113   -1.4206 C   0  0  0  0  0  0  0  0  0  0  0  0
    3.0390    3.4579   -2.1959 C   0  0  0  0  0  0  0  0  0  0  0  0
    2.7826    3.4598   -3.5726 C   0  0  0  0  0  0  0  0  0  0  0  0
    2.3189    2.2908   -4.1897 C   0  0  0  0  0  0  0  0  0  0  0  0
    2.0821    1.1269   -3.4452 C   0  0  0  0  0  0  0  0  0  0  0  0
    3.1803    2.3557    0.0245 C   0  0  0  0  0  0  0  0  0  0  0  0
    3.0346    4.6892   -4.3835 C   0  0  0  0  0  0  0  0  0  0  0  0
    1.6651   -0.1060   -4.1748 C   0  0  0  0  0  0  0  0  0  0  0  0
    0.4288   -2.5975    0.7498 C   0  0  0  0  0  0  0  0  0  0  0  0
    0.4578   -2.5226    2.1628 C   0  0  0  0  0  0  0  0  0  0  0  0
   -0.2573   -3.4708    2.9071 C   0  0  0  0  0  0  0  0  0  0  0  0
   -0.9942   -4.4771    2.2704 C   0  0  0  0  0  0  0  0  0  0  0  0
   -1.0331   -4.5306    0.8687 C   0  0  0  0  0  0  0  0  0  0  0  0
   -0.3313   -3.5996    0.0957 C   0  0  0  0  0  0  0  0  0  0  0  0
    1.2192   -1.4481    2.8594 C   0  0  0  0  0  0  0  0  0  0  0  0
   -1.7421   -5.4933    3.0701 C   0  0  0  0  0  0  0  0  0  0  0  0
   -0.4051   -3.6507   -1.3919 C   0  0  0  0  0  0  0  0  0  0  0  0
    4.0944   -0.4854   -0.6525 H   0  0  0  0  0  0  0  0  0  0  0  0
    3.5712   -1.3317   -2.1419 H   0  0  0  0  0  0  0  0  0  0  0  0
    2.6705   -3.1132   -0.8131 H   0  0  0  0  0  0  0  0  0  0  0  0
    3.1965   -2.2676    0.6751 H   0  0  0  0  0  0  0  0  0  0  0  0
    3.4243    4.3556   -1.7165 H   0  0  0  0  0  0  0  0  0  0  0  0
    2.1427    2.2798   -5.2634 H   0  0  0  0  0  0  0  0  0  0  0  0
    2.6757    3.1933    0.5372 H   0  0  0  0  0  0  0  0  0  0  0  0
    4.2609    2.4967    0.1569 H   0  0  0  0  0  0  0  0  0  0  0  0
    2.8896    1.4530    0.5820 H   0  0  0  0  0  0  0  0  0  0  0  0
    2.9006    5.6097   -3.7994 H   0  0  0  0  0  0  0  0  0  0  0  0
    2.3667    4.7600   -5.2527 H   0  0  0  0  0  0  0  0  0  0  0  0
    4.0663    4.6961   -4.7665 H   0  0  0  0  0  0  0  0  0  0  0  0
    0.8063    0.0942   -4.8383 H   0  0  0  0  0  0  0  0  0  0  0  0
    1.3383   -0.9202   -3.5109 H   0  0  0  0  0  0  0  0  0  0  0  0
    2.4807   -0.4898   -4.8014 H   0  0  0  0  0  0  0  0  0  0  0  0
   -0.2376   -3.4198    3.9940 H   0  0  0  0  0  0  0  0  0  0  0  0
   -1.6166   -5.3058    0.3760 H   0  0  0  0  0  0  0  0  0  0  0  0
    0.8963   -0.4460    2.5078 H   0  0  0  0  0  0  0  0  0  0  0  0
    2.2977   -1.5142    2.6669 H   0  0  0  0  0  0  0  0  0  0  0  0
    1.0780   -1.4556    3.9475 H   0  0  0  0  0  0  0  0  0  0  0  0
   -2.8125   -5.4934    2.8171 H   0  0  0  0  0  0  0  0  0  0  0  0
   -1.6676   -5.3249    4.1525 H   0  0  0  0  0  0  0  0  0  0  0  0
   -1.3642   -6.5079    2.8749 H   0  0  0  0  0  0  0  0  0  0  0  0
   -1.1020   -4.4125   -1.7631 H   0  0  0  0  0  0  0  0  0  0  0  0
    0.5740   -3.8514   -1.8461 H   0  0  0  0  0  0  0  0  0  0  0  0
   -0.7506   -2.6795   -1.8037 H   0  0  0  0  0  0  0  0  0  0  0  0
  1  2  1  0  0  0  0
  1  3  2  0  0  0  0
  3  4  1  0  0  0  0
  2  5  1  0  0  0  0
  5  6  1  0  0  0  0
  5  7  1  0  0  0  0
  7  8  1  0  0  0  0
  7  9  1  0  0  0  0
  7 10  1  0  0  0  0
  5 11  1  0  0  0  0
 11 12  1  0  0  0  0
 11 13  1  0  0  0  0
 11 14  1  0  0  0  0
  2 15  1  0  0  0  0
 15 24  1  0  0  0  0
 15 16  2  0  0  0  0
 16 17  1  0  0  0  0
 16 18  1  0  0  0  0
 18 19  1  0  0  0  0
 18 20  2  0  0  0  0
 20 21  1  0  0  0  0
 20 22  1  0  0  0  0
 22 24  2  0  0  0  0
 22 23  1  0  0  0  0
  3 24  1  0  0  0  0
  1 25  1  0  0  0  0
  1 26  1  0  0  0  0
 27 29  1  0  0  0  0
 28 29  1  0  0  0  0
 27 30  1  0  0  0  0
 30 31  1  0  0  0  0
 28 31  1  0  0  0  0
 27 32  1  0  0  0  0
 32 33  2  0  0  0  0
 33 34  1  0  0  0  0
 34 35  2  0  0  0  0
 35 36  1  0  0  0  0
 36 37  2  0  0  0  0
 32 37  1  0  0  0  0
 33 38  1  0  0  0  0
 35 39  1  0  0  0  0
 37 40  1  0  0  0  0
 28 41  1  0  0  0  0
 41 42  2  0  0  0  0
 42 43  1  0  0  0  0
 43 44  2  0  0  0  0
 44 45  1  0  0  0  0
 45 46  2  0  0  0  0
 41 46  1  0  0  0  0
 42 47  1  0  0  0  0
 44 48  1  0  0  0  0
 46 49  1  0  0  0  0
 30 50  1  0  0  0  0
 30 51  1  0  0  0  0
 31 52  1  0  0  0  0
 31 53  1  0  0  0  0
 34 54  1  0  0  0  0
 36 55  1  0  0  0  0
 38 56  1  0  0  0  0
 38 57  1  0  0  0  0
 38 58  1  0  0  0  0
 39 59  1  0  0  0  0
 39 60  1  0  0  0  0
 39 61  1  0  0  0  0
 40 62  1  0  0  0  0
 40 63  1  0  0  0  0
 40 64  1  0  0  0  0
 43 65  1  0  0  0  0
 45 66  1  0  0  0  0
 47 67  1  0  0  0  0
 47 68  1  0  0  0  0
 47 69  1  0  0  0  0
 48 70  1  0  0  0  0
 48 71  1  0  0  0  0
 48 72  1  0  0  0  0
 49 73  1  0  0  0  0
 49 74  1  0  0  0  0
 49 75  1  0  0  0  0
  1 29  1  0  0  0  0
M  END
> <FrozenCore-PM6_ENERGY>
59.214

> <RMSD_CONF_CG-CS>
0.975190

> <RMSD_CONF_GO-CS>
0.000000

> <UID>


> <hartree_to_kcalmol>
627.49467516

> <boltzmann_constant>
0.0000000000000000000000138066

> <avogadro_number>
602214000000000000000000

> <jmol_to_kcalmol>
0.00023901

> <temp>
313.15

> <kT>
.6223089948281258706000000000

> <G_Propene>
-117.738020895

> <G_Ethene>
-78.4716324751

> <G_HoveydaProd>
-502.204109499

> <G_SIMes>
-924.27249048

> <G_PCy3>
-1046.11440274

> <G_HG_RuCl2_SIMes>
-2402.13728523

> <G_HI_precursor>
-2523.95659027

> <DG_referenceProductionBarrier>
0.0222714248

> <DDG_reference_HGII>
0.0222312922

> <DG_referenceProductionBarrier>
0.0222714248

> <DG_referencePrecursorStabilityHII>
-0.0052201621

> <DG_referencePrecursorStabilityHI>
0.0117775312

> <DDG_referencePrecursorStability>
.0169976933

> <magnitude3>
4.29872427

> <magnitude2>
2.86581618

> <magnitude1>
1.43290809

> <magnitude4>
5.73163236

> <freeEnergyX>
-6362.87789873

> <freeEnergyZ>
-6284.3260415

> <freeEnergyD>
-6284.36877673

> <freeEnergyA>
-6629.60250779

> <freeEnergyC>
-6284.34686821

> <freeEnergyE>
-2402.13791198

> <freeEnergyF>
-6629.58849832

> <freeEnergyL>
-924.272424436

> <DESCRIPTOR_1>
.04170399453921025627

> <DESCRIPTOR_DEFINITION_1>
desc1=( echo "1 * ( e( $hartree_to_kcalmol * ( ( $freeEnergyZ - $freeEnergyD ) - ( $freeEnergyX + 2*$G_Ethene - $freeEnergyD - 2*$G_Propene ) - $DDG_reference_HGII ) / $kT ) ) " | bc -l )

> <DESCRIPTOR_2>
11.972843250475047432

> <DESCRIPTOR_DEFINITION_2>
desc2=$( echo "1 * ( $hartree_to_kcalmol * ( ( $freeEnergyZ - $freeEnergyD ) - ( $freeEnergyX + 2*$G_Ethene - $freeEnergyD - 2*$G_Propene ) ) )" | bc -l )

> <DESCRIPTOR_3>
0.0000000001

> <DESCRIPTOR_DEFINITION_3>
desc3=$( echo "1 * $hartree_to_kcalmol * ( $DG_referenceProductionBarrier - ( $freeEnergyX + 2*$G_Ethene - $freeEnergyD - 2*$G_Propene ) )" | bc -l )

> <WEIGHT_1>
.99959665893998327396

> <WEIGHT_DEFINITION_1>
w1=$( echo "1 / ( 1 + e( $hartree_to_kcalmol * ( ( ( $freeEnergyX + 2*$G_Ethene - $freeEnergyD - 2*$G_Propene ) ) - ( $DG_referenceProductionBarrier + $magnitude4 ) ) / $kT ) )" | bc -l )

> <WEIGHT_2>
.99999999634284937757

> <WEIGHT_DEFINITION_2>
w2=$( echo "1 / ( 1 + e( $hartree_to_kcalmol * ( ABS( $freeEnergyC + $G_HoveydaProd - $freeEnergyA - 2*${G_Ethene} - $DG_referencePrecursorStabilityHII ) - ( $DDG_referencePrecursorStability + $magnitude1 ) ) / $kT ) )" | bc -l )

> <WEIGHT_3>
.99999999999373936278

> <WEIGHT_DEFINITION_3>
w3=$( echo "1 / ( 1 + e( $hartree_to_kcalmol * ( ( $freeEnergyE + $G_PCy3 - $G_HI_precursor - $freeEnergyL ) - $magnitude1 ) / $kT ) )" | bc -l )

> <WEIGHT_4>
.99992671465855735535

> <WEIGHT_DEFINITION_4>
w4=$( echo "1 / ( 1 + e( $hartree_to_kcalmol * ( - ( $freeEnergyF - $freeEnergyA ) + $magnitude2 ) / $kT ) )" | bc -l )

> <CALCULATION_OF_OVERALL_FITNESS>
fitness=$( echo "( $desc1 + $desc2 + $desc3 ) * $w1 * $w2 * $w3 * $w4 " | bc -l )

> <FITNESS>
12.00882110584025411633

> <DFT_IDENTIFIER>
1724670790639

> <DFT_MACHINE>
158.39.114.73

> <XTB_IDENTIFIER>
NREC

> <XTB_MACHINE>
NREC

$$$$
