
  CDK     08212400293D

 67 70  0  0  0  0  0  0  0  0999 V2000
    1.4610    0.2415    3.2062 C   0  0  0  0  0  0  0  0  0  0  0  0
    1.8877   -0.7767    3.2170 H   0  0  0  0  0  0  0  0  0  0  0  0
    1.7849    0.7934    4.1172 H   0  0  0  0  0  0  0  0  0  0  0  0
    1.8896    0.7868    2.3398 H   0  0  0  0  0  0  0  0  0  0  0  0
   -0.0490    0.2325    3.1646 C   0  0  0  0  0  0  0  0  0  0  0  0
   -0.5260    1.2255    3.2609 H   0  0  0  0  0  0  0  0  0  0  0  0
   -0.8625   -0.8608    3.5669 C   0  0  0  0  0  0  0  0  0  0  0  0
   -0.3533   -1.8269    3.7302 H   0  0  0  0  0  0  0  0  0  0  0  0
   -2.1523   -0.6083    4.3148 C   0  0  0  0  0  0  0  0  0  0  0  0
   -2.8156   -1.4936    4.3375 H   0  0  0  0  0  0  0  0  0  0  0  0
   -1.9013   -0.3516    5.3667 H   0  0  0  0  0  0  0  0  0  0  0  0
   -2.7002    0.2485    3.8751 H   0  0  0  0  0  0  0  0  0  0  0  0
   -2.0010   -1.6430    1.7021 C   0  0  0  0  0  0  0  0  0  0  0  0
   -3.0382   -1.2743    1.8520 H   0  0  0  0  0  0  0  0  0  0  0  0
   -1.8236   -2.7333    1.8304 H   0  0  0  0  0  0  0  0  0  0  0  0
   -0.6405   -0.5213    1.2034 Ru  0  0  0  0  0  0  0  0  0  0  0  0
   -2.2716    1.4242    1.2319 Br  0  0  0  0  0  0  0  0  0  0  0  0
    0.9625   -2.4900    1.2959 Br  0  0  0  0  0  0  0  0  0  0  0  0
   -1.3613   -0.8619   -1.7396 N   0  0  0  0  0  0  0  0  0  0  0  0
    0.4074    0.4156   -1.4222 N   0  0  0  0  0  0  0  0  0  0  0  0
   -0.5310   -0.3451   -0.7975 C   0  0  0  0  0  0  0  0  0  0  0  0
   -1.0420   -0.3667   -3.0949 C   0  0  0  0  0  0  0  0  0  0  0  0
    0.3122    0.3363   -2.8918 C   0  0  0  0  0  0  0  0  0  0  0  0
   -1.8313    0.3350   -3.4365 H   0  0  0  0  0  0  0  0  0  0  0  0
   -0.9913   -1.2093   -3.8118 H   0  0  0  0  0  0  0  0  0  0  0  0
    1.1608   -0.2547   -3.2970 H   0  0  0  0  0  0  0  0  0  0  0  0
    0.3463    1.3476   -3.3420 H   0  0  0  0  0  0  0  0  0  0  0  0
   -2.5232   -1.6626   -1.4822 C   0  0  0  0  0  0  0  0  0  0  0  0
   -3.7992   -1.0573   -1.4220 C   0  0  0  0  0  0  0  0  0  0  0  0
   -4.9026   -1.8776   -1.1260 C   0  0  0  0  0  0  0  0  0  0  0  0
   -4.7701   -3.2608   -0.9171 C   0  0  0  0  0  0  0  0  0  0  0  0
   -3.4931   -3.8349   -1.0491 C   0  0  0  0  0  0  0  0  0  0  0  0
   -2.3571   -3.0610   -1.3413 C   0  0  0  0  0  0  0  0  0  0  0  0
   -5.8991   -1.4137   -1.0586 H   0  0  0  0  0  0  0  0  0  0  0  0
   -3.3731   -4.9231   -0.9299 H   0  0  0  0  0  0  0  0  0  0  0  0
   -3.9949    0.4096   -1.6980 C   0  0  0  0  0  0  0  0  0  0  0  0
   -4.0427    0.6033   -2.7921 H   0  0  0  0  0  0  0  0  0  0  0  0
   -3.1797    1.0172   -1.2613 H   0  0  0  0  0  0  0  0  0  0  0  0
   -4.9456    0.7673   -1.2602 H   0  0  0  0  0  0  0  0  0  0  0  0
   -5.9629   -4.1090   -0.5532 C   0  0  0  0  0  0  0  0  0  0  0  0
   -6.0299   -4.2459    0.5474 H   0  0  0  0  0  0  0  0  0  0  0  0
   -5.8958   -5.1200   -1.0015 H   0  0  0  0  0  0  0  0  0  0  0  0
   -6.9116   -3.6440   -0.8845 H   0  0  0  0  0  0  0  0  0  0  0  0
   -1.0077   -3.7030   -1.5031 C   0  0  0  0  0  0  0  0  0  0  0  0
   -0.4858   -3.3325   -2.4092 H   0  0  0  0  0  0  0  0  0  0  0  0
   -1.1022   -4.8023   -1.5839 H   0  0  0  0  0  0  0  0  0  0  0  0
   -0.3455   -3.4727   -0.6391 H   0  0  0  0  0  0  0  0  0  0  0  0
    1.5584    0.9351   -0.7372 C   0  0  0  0  0  0  0  0  0  0  0  0
    2.7130    0.1267   -0.5997 C   0  0  0  0  0  0  0  0  0  0  0  0
    3.7958    0.6454    0.1301 C   0  0  0  0  0  0  0  0  0  0  0  0
    3.7693    1.9366    0.6859 C   0  0  0  0  0  0  0  0  0  0  0  0
    2.6363    2.7383    0.4598 C   0  0  0  0  0  0  0  0  0  0  0  0
    1.5229    2.2676   -0.2588 C   0  0  0  0  0  0  0  0  0  0  0  0
    4.6885    0.0156    0.2665 H   0  0  0  0  0  0  0  0  0  0  0  0
    2.6158    3.7685    0.8478 H   0  0  0  0  0  0  0  0  0  0  0  0
    2.8237   -1.2199   -1.2643 C   0  0  0  0  0  0  0  0  0  0  0  0
    3.2118   -1.1058   -2.3006 H   0  0  0  0  0  0  0  0  0  0  0  0
    1.8535   -1.7464   -1.3013 H   0  0  0  0  0  0  0  0  0  0  0  0
    3.5251   -1.8727   -0.7132 H   0  0  0  0  0  0  0  0  0  0  0  0
    4.9198    2.4416    1.5191 C   0  0  0  0  0  0  0  0  0  0  0  0
    4.7867    2.1538    2.5842 H   0  0  0  0  0  0  0  0  0  0  0  0
    4.9956    3.5458    1.4852 H   0  0  0  0  0  0  0  0  0  0  0  0
    5.8854    2.0141    1.1851 H   0  0  0  0  0  0  0  0  0  0  0  0
    0.3467    3.1633   -0.5318 C   0  0  0  0  0  0  0  0  0  0  0  0
    0.0818    3.1650   -1.6091 H   0  0  0  0  0  0  0  0  0  0  0  0
    0.5695    4.2041   -0.2305 H   0  0  0  0  0  0  0  0  0  0  0  0
   -0.5573    2.8224    0.0178 H   0  0  0  0  0  0  0  0  0  0  0  0
  1  2  1  0  0  0  0
  1  5  1  0  0  0  0
  1  3  1  0  0  0  0
  1  4  1  0  0  0  0
  5  6  1  0  0  0  0
  5 16  1  0  0  0  0
  5  7  1  0  0  0  0
  7  9  1  0  0  0  0
  7  8  1  0  0  0  0
  9 10  1  0  0  0  0
  9 11  1  0  0  0  0
  9 12  1  0  0  0  0
 13 14  1  0  0  0  0
 13 15  1  0  0  0  0
  7 13  1  0  0  0  0
 13 16  1  0  0  0  0
 16 17  1  0  0  0  0
 16 18  1  0  0  0  0
 19 21  1  0  0  0  0
 20 21  1  0  0  0  0
 19 22  1  0  0  0  0
 22 23  1  0  0  0  0
 20 23  1  0  0  0  0
 22 24  1  0  0  0  0
 22 25  1  0  0  0  0
 23 26  1  0  0  0  0
 23 27  1  0  0  0  0
 28 29  2  0  0  0  0
 29 30  1  0  0  0  0
 30 31  2  0  0  0  0
 31 32  1  0  0  0  0
 32 33  2  0  0  0  0
 28 33  1  0  0  0  0
 30 34  1  0  0  0  0
 32 35  1  0  0  0  0
 19 28  1  0  0  0  0
 36 37  1  0  0  0  0
 36 38  1  0  0  0  0
 36 39  1  0  0  0  0
 29 36  1  0  0  0  0
 40 41  1  0  0  0  0
 40 42  1  0  0  0  0
 40 43  1  0  0  0  0
 31 40  1  0  0  0  0
 44 45  1  0  0  0  0
 44 46  1  0  0  0  0
 44 47  1  0  0  0  0
 33 44  1  0  0  0  0
 48 49  2  0  0  0  0
 49 50  1  0  0  0  0
 50 51  2  0  0  0  0
 51 52  1  0  0  0  0
 52 53  2  0  0  0  0
 48 53  1  0  0  0  0
 50 54  1  0  0  0  0
 52 55  1  0  0  0  0
 20 48  1  0  0  0  0
 56 57  1  0  0  0  0
 56 58  1  0  0  0  0
 56 59  1  0  0  0  0
 49 56  1  0  0  0  0
 60 61  1  0  0  0  0
 60 62  1  0  0  0  0
 60 63  1  0  0  0  0
 51 60  1  0  0  0  0
 64 65  1  0  0  0  0
 64 66  1  0  0  0  0
 64 67  1  0  0  0  0
 53 64  1  0  0  0  0
 16 21  1  0  0  0  0
M  END
>  <DFT-ENERGY>
-6362.87789876

$$$$
