
  CDK     08212407403D

 61 65  0  0  0  0  0  0  0  0999 V2000
    0.4587   -0.6009   -3.4249 H   0  0  0  0  0  0  0  0  0  0  0  0
    1.6653   -0.3657   -3.4783 C   0  0  0  0  0  0  0  0  0  0  0  0
    1.5048   -0.2541   -4.5750 H   0  0  0  0  0  0  0  0  0  0  0  0
    1.7720    0.7940   -2.5491 C   0  0  0  0  0  0  0  0  0  0  0  0
    2.7409    0.9479   -2.0458 H   0  0  0  0  0  0  0  0  0  0  0  0
    1.2481    1.7167   -2.8509 H   0  0  0  0  0  0  0  0  0  0  0  0
    0.5970   -0.6659   -1.6577 Ru  0  0  0  0  0  0  0  0  0  0  0  0
    2.1537   -1.6050   -2.8823 C   0  0  0  0  0  0  0  0  0  0  0  0
    3.0976   -1.6042   -2.3244 H   0  0  0  0  0  0  0  0  0  0  0  0
    1.8837   -2.5530   -3.3773 H   0  0  0  0  0  0  0  0  0  0  0  0
    2.4393   -1.0754    0.0846 Br  0  0  0  0  0  0  0  0  0  0  0  0
   -1.5853    0.0167   -2.8092 Br  0  0  0  0  0  0  0  0  0  0  0  0
   -0.6509   -1.0097    1.1435 N   0  0  0  0  0  0  0  0  0  0  0  0
   -0.9042    1.0460    0.3965 N   0  0  0  0  0  0  0  0  0  0  0  0
   -0.3406   -0.1601    0.1184 C   0  0  0  0  0  0  0  0  0  0  0  0
   -1.6615   -0.4188    2.0469 C   0  0  0  0  0  0  0  0  0  0  0  0
   -1.5394    1.0685    1.7308 C   0  0  0  0  0  0  0  0  0  0  0  0
   -1.4522   -0.6582    3.1036 H   0  0  0  0  0  0  0  0  0  0  0  0
   -2.6627   -0.8258    1.7849 H   0  0  0  0  0  0  0  0  0  0  0  0
   -2.5142    1.5876    1.6926 H   0  0  0  0  0  0  0  0  0  0  0  0
   -0.8781    1.6079    2.4443 H   0  0  0  0  0  0  0  0  0  0  0  0
   -0.2346   -2.3659    1.3265 C   0  0  0  0  0  0  0  0  0  0  0  0
    0.4453   -2.7057    2.5213 C   0  0  0  0  0  0  0  0  0  0  0  0
    0.7881   -4.0505    2.7341 C   0  0  0  0  0  0  0  0  0  0  0  0
    0.5037   -5.0533    1.7919 C   0  0  0  0  0  0  0  0  0  0  0  0
   -0.1202   -4.6707    0.5933 C   0  0  0  0  0  0  0  0  0  0  0  0
   -0.4956   -3.3412    0.3394 C   0  0  0  0  0  0  0  0  0  0  0  0
    1.3271   -4.3153    3.6573 H   0  0  0  0  0  0  0  0  0  0  0  0
   -0.3209   -5.4298   -0.1788 H   0  0  0  0  0  0  0  0  0  0  0  0
    0.8825   -1.6530    3.5067 C   0  0  0  0  0  0  0  0  0  0  0  0
    0.0893   -1.3918    4.2408 H   0  0  0  0  0  0  0  0  0  0  0  0
    1.1839   -0.7277    2.9764 H   0  0  0  0  0  0  0  0  0  0  0  0
    1.7514   -2.0122    4.0899 H   0  0  0  0  0  0  0  0  0  0  0  0
    0.8580   -6.4940    2.0605 C   0  0  0  0  0  0  0  0  0  0  0  0
    1.7682   -6.5785    2.6862 H   0  0  0  0  0  0  0  0  0  0  0  0
    1.0317   -7.0528    1.1203 H   0  0  0  0  0  0  0  0  0  0  0  0
    0.0386   -7.0120    2.6041 H   0  0  0  0  0  0  0  0  0  0  0  0
   -1.0715   -2.9585   -0.9878 C   0  0  0  0  0  0  0  0  0  0  0  0
   -1.4216   -3.8410   -1.5560 H   0  0  0  0  0  0  0  0  0  0  0  0
   -0.2648   -2.5210   -1.6631 H   0  0  0  0  0  0  0  0  0  0  0  0
   -1.8891   -2.2184   -0.9347 H   0  0  0  0  0  0  0  0  0  0  0  0
   -0.7264    2.2795   -0.3161 C   0  0  0  0  0  0  0  0  0  0  0  0
   -1.8399    2.8591   -0.9644 C   0  0  0  0  0  0  0  0  0  0  0  0
   -1.6477    4.0661   -1.6594 C   0  0  0  0  0  0  0  0  0  0  0  0
   -0.4019    4.7115   -1.7009 C   0  0  0  0  0  0  0  0  0  0  0  0
    0.6618    4.1450   -0.9757 C   0  0  0  0  0  0  0  0  0  0  0  0
    0.5226    2.9440   -0.2603 C   0  0  0  0  0  0  0  0  0  0  0  0
   -2.5049    4.5110   -2.1884 H   0  0  0  0  0  0  0  0  0  0  0  0
    1.6336    4.6625   -0.9470 H   0  0  0  0  0  0  0  0  0  0  0  0
   -3.2186    2.2556   -0.8852 C   0  0  0  0  0  0  0  0  0  0  0  0
   -3.8024    2.7215   -0.0605 H   0  0  0  0  0  0  0  0  0  0  0  0
   -3.1813    1.1639   -0.7217 H   0  0  0  0  0  0  0  0  0  0  0  0
   -3.7789    2.4338   -1.8226 H   0  0  0  0  0  0  0  0  0  0  0  0
   -0.2053    5.9753   -2.4996 C   0  0  0  0  0  0  0  0  0  0  0  0
   -1.1608    6.5121   -2.6579 H   0  0  0  0  0  0  0  0  0  0  0  0
    0.2145    5.7476   -3.5029 H   0  0  0  0  0  0  0  0  0  0  0  0
    0.5032    6.6665   -2.0014 H   0  0  0  0  0  0  0  0  0  0  0  0
    1.6559    2.4219    0.5782 C   0  0  0  0  0  0  0  0  0  0  0  0
    1.3379    2.2652    1.6306 H   0  0  0  0  0  0  0  0  0  0  0  0
    2.4988    3.1382    0.5853 H   0  0  0  0  0  0  0  0  0  0  0  0
    2.0290    1.4389    0.2259 H   0  0  0  0  0  0  0  0  0  0  0  0
  1  2  1  0  0  0  0
  1  7  1  0  0  0  0
  2  3  1  0  0  0  0
  2  4  1  0  0  0  0
  4  5  1  0  0  0  0
  6  4  1  0  0  0  0
  7  8  1  0  0  0  0
  7  4  1  0  0  0  0
  8  2  1  0  0  0  0
  8  9  1  0  0  0  0
 10  8  1  0  0  0  0
  7 11  1  0  0  0  0
  7 12  1  0  0  0  0
 13 15  1  0  0  0  0
 14 15  1  0  0  0  0
 13 16  1  0  0  0  0
 16 17  1  0  0  0  0
 14 17  1  0  0  0  0
 16 18  1  0  0  0  0
 16 19  1  0  0  0  0
 17 20  1  0  0  0  0
 17 21  1  0  0  0  0
 22 23  2  0  0  0  0
 23 24  1  0  0  0  0
 24 25  2  0  0  0  0
 25 26  1  0  0  0  0
 26 27  2  0  0  0  0
 22 27  1  0  0  0  0
 24 28  1  0  0  0  0
 26 29  1  0  0  0  0
 13 22  1  0  0  0  0
 30 31  1  0  0  0  0
 30 32  1  0  0  0  0
 30 33  1  0  0  0  0
 23 30  1  0  0  0  0
 34 35  1  0  0  0  0
 34 36  1  0  0  0  0
 34 37  1  0  0  0  0
 25 34  1  0  0  0  0
 38 39  1  0  0  0  0
 38 40  1  0  0  0  0
 38 41  1  0  0  0  0
 27 38  1  0  0  0  0
 42 43  2  0  0  0  0
 43 44  1  0  0  0  0
 44 45  2  0  0  0  0
 45 46  1  0  0  0  0
 46 47  2  0  0  0  0
 42 47  1  0  0  0  0
 44 48  1  0  0  0  0
 46 49  1  0  0  0  0
 14 42  1  0  0  0  0
 50 51  1  0  0  0  0
 50 52  1  0  0  0  0
 50 53  1  0  0  0  0
 43 50  1  0  0  0  0
 54 55  1  0  0  0  0
 54 56  1  0  0  0  0
 54 57  1  0  0  0  0
 45 54  1  0  0  0  0
 58 59  1  0  0  0  0
 58 60  1  0  0  0  0
 58 61  1  0  0  0  0
 47 58  1  0  0  0  0
  7 15  1  0  0  0  0
M  END
>  <DFT-ENERGY>
-6284.32604168

$$$$
