M000000952_A1
  CDK     07282408513D

 86 91  0  0  0  0  0  0  0  0999 V2000
    0.7448   -0.9246   -0.6092 Ru  0  0  0  0  0  0  0  0  0  0  0  0
    2.5226   -2.3138   -0.6092 O   0  0  0  0  0  0  0  0  0  0  0  0
    1.9550    0.0795    0.3241 C   0  0  0  0  0  0  0  0  0  0  0  0
    1.7222    1.1022    0.6170 H   0  0  0  0  0  0  0  0  0  0  0  0
    2.7581   -3.5396   -1.3844 C   0  0  0  0  0  0  0  0  0  0  0  0
    3.1692   -4.2990   -0.6864 H   0  0  0  0  0  0  0  0  0  0  0  0
    1.3375   -3.8604   -1.8263 C   0  0  0  0  0  0  0  0  0  0  0  0
    0.6469   -3.8748   -0.9581 H   0  0  0  0  0  0  0  0  0  0  0  0
    1.2712   -4.8283   -2.3293 H   0  0  0  0  0  0  0  0  0  0  0  0
    0.9439   -3.0901   -2.5207 H   0  0  0  0  0  0  0  0  0  0  0  0
    3.6963   -3.2079   -2.5318 C   0  0  0  0  0  0  0  0  0  0  0  0
    3.6980   -3.9912   -3.2962 H   0  0  0  0  0  0  0  0  0  0  0  0
    4.7279   -3.0483   -2.2016 H   0  0  0  0  0  0  0  0  0  0  0  0
    3.3720   -2.2705   -3.0244 H   0  0  0  0  0  0  0  0  0  0  0  0
    3.5148   -1.8088    0.1892 C   0  0  0  0  0  0  0  0  0  0  0  0
    4.6839   -2.4618    0.5379 C   0  0  0  0  0  0  0  0  0  0  0  0
    4.9030   -3.4673    0.1866 H   0  0  0  0  0  0  0  0  0  0  0  0
    5.5851   -1.8043    1.3690 C   0  0  0  0  0  0  0  0  0  0  0  0
    6.5077   -2.3127    1.6560 H   0  0  0  0  0  0  0  0  0  0  0  0
    5.3351   -0.5190    1.8406 C   0  0  0  0  0  0  0  0  0  0  0  0
    6.0602   -0.0246    2.4847 H   0  0  0  0  0  0  0  0  0  0  0  0
    4.1654    0.1226    1.4803 C   0  0  0  0  0  0  0  0  0  0  0  0
    3.9722    1.1339    1.8349 H   0  0  0  0  0  0  0  0  0  0  0  0
    3.2299   -0.5168    0.6649 C   0  0  0  0  0  0  0  0  0  0  0  0
    1.3360   -0.3722   -2.7705 Cl  0  0  0  0  0  0  0  0  0  0  0  0
   -0.0725   -2.2742    1.0847 Cl  0  0  0  0  0  0  0  0  0  0  0  0
    0.3350    2.6989    3.2931 C   0  0  0  0  0  0  0  0  0  0  0  0
   -0.3285    1.7492    2.4973 C   0  0  0  0  0  0  0  0  0  0  0  0
   -0.5372    2.0380    1.1289 C   0  0  0  0  0  0  0  0  0  0  0  0
   -0.0088    3.2258    0.5554 C   0  0  0  0  0  0  0  0  0  0  0  0
    0.6614    4.1352    1.3833 C   0  0  0  0  0  0  0  0  0  0  0  0
    0.8149    3.8863    2.7480 C   0  0  0  0  0  0  0  0  0  0  0  0
   -1.3256    1.1552    0.2833 N   0  0  0  0  0  0  0  0  0  0  0  0
   -2.8425    1.3721    0.2230 C   0  0  0  0  0  0  0  0  0  0  0  0
   -3.2967    0.2519   -0.7485 C   0  0  0  0  0  0  0  0  0  0  0  0
   -2.0131   -0.2620   -1.4479 C   0  0  0  0  0  0  0  0  0  0  0  0
   -0.8502    0.1429   -0.5054 C   0  0  0  0  0  0  0  0  0  0  0  0
   -2.0990   -1.7383   -1.7733 C   0  0  0  0  0  0  0  0  0  0  0  0
   -2.0045   -1.9610   -3.1711 C   0  0  0  0  0  0  0  0  0  0  0  0
   -1.7906   -0.6777   -3.9186 C   0  0  0  0  0  0  0  0  0  0  0  0
   -1.8090    0.4297   -2.8399 C   0  0  0  0  0  0  0  0  0  0  0  0
   -2.3388   -2.8027   -0.9121 C   0  0  0  0  0  0  0  0  0  0  0  0
   -2.4552   -4.0981   -1.4478 C   0  0  0  0  0  0  0  0  0  0  0  0
   -2.3491   -4.3135   -2.8219 C   0  0  0  0  0  0  0  0  0  0  0  0
   -2.1243   -3.2402   -3.7002 C   0  0  0  0  0  0  0  0  0  0  0  0
   -3.1740    2.7656   -0.3195 C   0  0  0  0  0  0  0  0  0  0  0  0
   -3.4745    1.1907    1.6040 C   0  0  0  0  0  0  0  0  0  0  0  0
   -0.0854    3.5151   -0.9360 C   0  0  0  0  0  0  0  0  0  0  0  0
   -0.3853    4.9924   -1.2241 C   0  0  0  0  0  0  0  0  0  0  0  0
   -0.7273    0.4334    3.1445 C   0  0  0  0  0  0  0  0  0  0  0  0
    0.5347   -0.3520    3.5251 C   0  0  0  0  0  0  0  0  0  0  0  0
    1.2231    3.0710   -1.5985 C   0  0  0  0  0  0  0  0  0  0  0  0
   -1.6174    0.6632    4.3745 C   0  0  0  0  0  0  0  0  0  0  0  0
   -4.0428    0.6084   -1.4757 H   0  0  0  0  0  0  0  0  0  0  0  0
   -3.7936   -0.5717   -0.2038 H   0  0  0  0  0  0  0  0  0  0  0  0
   -0.8590    1.0004   -2.8578 H   0  0  0  0  0  0  0  0  0  0  0  0
   -2.6111    1.1569   -3.0389 H   0  0  0  0  0  0  0  0  0  0  0  0
   -0.8150   -0.6907   -4.4492 H   0  0  0  0  0  0  0  0  0  0  0  0
   -2.5664   -0.5156   -4.6858 H   0  0  0  0  0  0  0  0  0  0  0  0
   -2.0495   -3.4108   -4.7702 H   0  0  0  0  0  0  0  0  0  0  0  0
   -2.4461   -5.3210   -3.2228 H   0  0  0  0  0  0  0  0  0  0  0  0
   -2.6307   -4.9361   -0.7759 H   0  0  0  0  0  0  0  0  0  0  0  0
   -2.4432   -2.6460    0.1627 H   0  0  0  0  0  0  0  0  0  0  0  0
   -2.6836    2.9525   -1.2864 H   0  0  0  0  0  0  0  0  0  0  0  0
   -2.8414    3.5561    0.3663 H   0  0  0  0  0  0  0  0  0  0  0  0
   -4.2526    2.8906   -0.4606 H   0  0  0  0  0  0  0  0  0  0  0  0
   -4.5650    1.2796    1.5524 H   0  0  0  0  0  0  0  0  0  0  0  0
   -3.1174    1.9434    2.3203 H   0  0  0  0  0  0  0  0  0  0  0  0
   -3.2420    0.2052    2.0331 H   0  0  0  0  0  0  0  0  0  0  0  0
    1.0756    5.0485    0.9558 H   0  0  0  0  0  0  0  0  0  0  0  0
    0.4850    2.4920    4.3531 H   0  0  0  0  0  0  0  0  0  0  0  0
    1.3224    4.6132    3.3805 H   0  0  0  0  0  0  0  0  0  0  0  0
   -0.9196    2.9171   -1.3952 H   0  0  0  0  0  0  0  0  0  0  0  0
    1.3760    1.9812   -1.4872 H   0  0  0  0  0  0  0  0  0  0  0  0
    2.0974    3.5696   -1.1690 H   0  0  0  0  0  0  0  0  0  0  0  0
    1.2202    3.2766   -2.6745 H   0  0  0  0  0  0  0  0  0  0  0  0
   -0.5761    5.1499   -2.2915 H   0  0  0  0  0  0  0  0  0  0  0  0
    0.4541    5.6427   -0.9516 H   0  0  0  0  0  0  0  0  0  0  0  0
   -1.2645    5.3393   -0.6712 H   0  0  0  0  0  0  0  0  0  0  0  0
   -1.2976   -0.1926    2.4048 H   0  0  0  0  0  0  0  0  0  0  0  0
   -2.0319   -0.2868    4.7313 H   0  0  0  0  0  0  0  0  0  0  0  0
   -2.4537    1.3343    4.1534 H   0  0  0  0  0  0  0  0  0  0  0  0
   -1.0580    1.1015    5.2083 H   0  0  0  0  0  0  0  0  0  0  0  0
    0.2759   -1.3693    3.8463 H   0  0  0  0  0  0  0  0  0  0  0  0
    1.1065    0.1243    4.3243 H   0  0  0  0  0  0  0  0  0  0  0  0
    1.2017   -0.4725    2.6548 H   0  0  0  0  0  0  0  0  0  0  0  0
  2  1  1  0  0  0  0
  3  1  2  0  0  0  0
  4  3  1  0  0  0  0
  5  2  1  0  0  0  0
  6  5  1  0  0  0  0
  7  5  1  0  0  0  0
  8  7  1  0  0  0  0
  9  7  1  0  0  0  0
 10  7  1  0  0  0  0
 11  5  1  0  0  0  0
 12 11  1  0  0  0  0
 13 11  1  0  0  0  0
 14 11  1  0  0  0  0
 15  2  1  0  0  0  0
 15 24  1  0  0  0  0
 16 15  2  0  0  0  0
 17 16  1  0  0  0  0
 18 16  1  0  0  0  0
 19 18  1  0  0  0  0
 20 18  2  0  0  0  0
 21 20  1  0  0  0  0
 22 20  1  0  0  0  0
 22 24  2  0  0  0  0
 23 22  1  0  0  0  0
 24  3  1  0  0  0  0
  1 25  1  0  0  0  0
  1 26  1  0  0  0  0
 27 28  2  0  0  0  0
 27 32  2  0  0  0  0
 27 71  1  0  0  0  0
 28 29  2  0  0  0  0
 28 50  1  0  0  0  0
 29 30  2  0  0  0  0
 29 33  1  0  0  0  0
 30 31  2  0  0  0  0
 30 48  1  0  0  0  0
 31 32  2  0  0  0  0
 31 70  1  0  0  0  0
 32 72  1  0  0  0  0
 33 34  1  0  0  0  0
 33 37  1  0  0  0  0
 34 35  1  0  0  0  0
 34 46  1  0  0  0  0
 34 47  1  0  0  0  0
 35 36  1  0  0  0  0
 35 54  1  0  0  0  0
 35 55  1  0  0  0  0
 36 37  1  0  0  0  0
 36 38  1  0  0  0  0
 36 41  1  0  0  0  0
 38 39  2  0  0  0  0
 38 42  2  0  0  0  0
 39 40  1  0  0  0  0
 39 45  2  0  0  0  0
 40 41  1  0  0  0  0
 40 58  1  0  0  0  0
 40 59  1  0  0  0  0
 41 56  1  0  0  0  0
 41 57  1  0  0  0  0
 42 43  2  0  0  0  0
 42 63  1  0  0  0  0
 43 44  2  0  0  0  0
 43 62  1  0  0  0  0
 44 45  2  0  0  0  0
 44 61  1  0  0  0  0
 45 60  1  0  0  0  0
 46 64  1  0  0  0  0
 46 65  1  0  0  0  0
 46 66  1  0  0  0  0
 47 67  1  0  0  0  0
 47 68  1  0  0  0  0
 47 69  1  0  0  0  0
 48 49  1  0  0  0  0
 48 52  1  0  0  0  0
 48 73  1  0  0  0  0
 49 77  1  0  0  0  0
 49 78  1  0  0  0  0
 49 79  1  0  0  0  0
 50 51  1  0  0  0  0
 50 53  1  0  0  0  0
 50 80  1  0  0  0  0
 51 84  1  0  0  0  0
 51 85  1  0  0  0  0
 51 86  1  0  0  0  0
 52 74  1  0  0  0  0
 52 75  1  0  0  0  0
 52 76  1  0  0  0  0
 53 81  1  0  0  0  0
 53 82  1  0  0  0  0
 53 83  1  0  0  0  0
  1 37  1  0  0  0  0
M  END
> <FrozenCore-PM6_ENERGY>
5.100

> <RMSD_CONF_CG-CS>
0.221162

> <RMSD_CONF_GO-CS>
0.000000

> <UID>


> <DESCRIPTOR_DEFINITION_1>
desc1=( echo "1 * ( e( $hartree_to_kcalmol * ( ( $freeEnergyZ - $freeEnergyD ) - ( $freeEnergyX + 2*$G_Ethene - $freeEnergyD - 2*$G_Propene ) - $DDG_reference_HGII ) / $kT ) ) " | bc -l )

> <DESCRIPTOR_DEFINITION_2>
desc1=( echo "1 * ( e( $hartree_to_kcalmol * ( ( $freeEnergyZ - $freeEnergyD ) - ( $freeEnergyX + 2*$G_Ethene - $freeEnergyD - 2*$G_Propene ) - $DDG_reference_HGII ) / $kT ) ) " | bc -l )

> <DESCRIPTOR_DEFINITION_3>
desc1=( echo "1 * ( e( $hartree_to_kcalmol * ( ( $freeEnergyZ - $freeEnergyD ) - ( $freeEnergyX + 2*$G_Ethene - $freeEnergyD - 2*$G_Propene ) - $DDG_reference_HGII ) / $kT ) ) " | bc -l )

> <WEIGHT_DEFINITION_1>
w1=$( echo "1 / ( 1 + e( $hartree_to_kcalmol * ( ( ( $freeEnergyX + 2*$G_Ethene - $freeEnergyD - 2*$G_Propene ) ) - ( $DG_referenceProductionBarrier + $magnitude4 ) ) / $kT ) )" | bc -l )

> <WEIGHT_DEFINITION_2>
w1=$( echo "1 / ( 1 + e( $hartree_to_kcalmol * ( ( ( $freeEnergyX + 2*$G_Ethene - $freeEnergyD - 2*$G_Propene ) ) - ( $DG_referenceProductionBarrier + $magnitude4 ) ) / $kT ) )" | bc -l )

> <WEIGHT_DEFINITION_3>
w1=$( echo "1 / ( 1 + e( $hartree_to_kcalmol * ( ( ( $freeEnergyX + 2*$G_Ethene - $freeEnergyD - 2*$G_Propene ) ) - ( $DG_referenceProductionBarrier + $magnitude4 ) ) / $kT ) )" | bc -l )

> <WEIGHT_DEFINITION_4>
w1=$( echo "1 / ( 1 + e( $hartree_to_kcalmol * ( ( ( $freeEnergyX + 2*$G_Ethene - $freeEnergyD - 2*$G_Propene ) ) - ( $DG_referenceProductionBarrier + $magnitude4 ) ) / $kT ) )" | bc -l )

> <CALCULATION_OF_OVERALL_FITNESS>
fitness=$( echo "( $desc1 + $desc2 + $desc3 ) * ( $w1 * $w2 * $w3 * $w4 )" | bc -l )

> <freeEnergyA>
-2541.94527179

> <freeEnergyF>
-2541.92156083

> <freeEnergyE>
-2541.94527179

> <freeEnergyC>
-2196.68231603

> <freeEnergyL>
-1064.06643334

> <freeEnergyX>
-2275.21395714

> <freeEnergyZ>
-2196.65149683

> <freeEnergyD>
-2196.70714341

> <G_Propene>
-117.738020895

> <G_Ethene>
-78.4716324751

> <G_HoveydaProd>
-502.204109499

> <G_SIMes>
-924.27249048

> <G_HG_RuCl2_SIMes>
-2402.13728523

> <DG_referenceProductionBarrier>
0.01468968

> <DG_referencePrecursorStabilityHII>
-0.0052201621

> <DG_referencePrecursorStabilityHI>
0.0117775312

> <DDG_referencePrecursorStability>
.0169976933

> <DG_referenceSynt>
0.0226072217

> <hartree_to_kcalmol>
627.49467516

> <boltzmann_constant>
0.0000000000000000000000138066

> <avogadro_number>
602214000000000000000000

> <jmol_to_kcalmol>
0.00023901

> <temp>
313.15

> <kT>
.6223089948281258706000000000

> <magnitude1>
1.43290809

> <magnitude2>
2.86581618

> <magnitude3>
4.29872427

> <magnitude4>
5.73163236

> <DFT_IDENTIFIER>
1722226715092

> <DFT_MACHINE>
158.36.42.38

> <XTB_IDENTIFIER>
NREC

> <XTB_MACHINE>
NREC

> <DESCRIPTOR_1>
1834.04053314157169623409

> <DESCRIPTOR_2>
18.626219490770540232

> <DESCRIPTOR_3>
0.0000000001

> <WEIGHT_1>
.99588018990790808260

> <WEIGHT_2>
.99999415218147926466

> <WEIGHT_3>
.99999999999999999109

> <WEIGHT_4>
.99999999586347122824

> <FITNESS>
1845.02332039098844462475

$$$$
