
  CDK     08132405113D

 65 68  0  0  0  0  0  0  0  0999 V2000
    1.7229    0.2498   -2.7618 C   0  0  0  0  0  0  0  0  0  0  0  0
    2.1168   -0.7817   -2.7580 H   0  0  0  0  0  0  0  0  0  0  0  0
    2.1756    0.8220   -3.6024 H   0  0  0  0  0  0  0  0  0  0  0  0
    2.0575    0.7522   -1.8291 H   0  0  0  0  0  0  0  0  0  0  0  0
    0.2196    0.2914   -2.9034 C   0  0  0  0  0  0  0  0  0  0  0  0
   -0.2200    1.3009   -3.0057 H   0  0  0  0  0  0  0  0  0  0  0  0
   -0.5743   -0.7678   -3.4193 C   0  0  0  0  0  0  0  0  0  0  0  0
   -0.0755   -1.7409   -3.5708 H   0  0  0  0  0  0  0  0  0  0  0  0
   -1.7834   -0.4530   -4.2719 C   0  0  0  0  0  0  0  0  0  0  0  0
   -2.4672   -1.3157   -4.3831 H   0  0  0  0  0  0  0  0  0  0  0  0
   -1.4320   -0.1724   -5.2882 H   0  0  0  0  0  0  0  0  0  0  0  0
   -2.3445    0.4061   -3.8546 H   0  0  0  0  0  0  0  0  0  0  0  0
   -1.9116   -1.5629   -1.6973 C   0  0  0  0  0  0  0  0  0  0  0  0
   -2.9112   -1.1328   -1.9211 H   0  0  0  0  0  0  0  0  0  0  0  0
   -1.7736   -2.6567   -1.8444 H   0  0  0  0  0  0  0  0  0  0  0  0
   -0.5505   -0.5282   -1.0532 Ru  0  0  0  0  0  0  0  0  0  0  0  0
   -2.0144    1.3845   -1.1302 Cl  0  0  0  0  0  0  0  0  0  0  0  0
    0.8864   -2.4590   -1.0774 Cl  0  0  0  0  0  0  0  0  0  0  0  0
    1.4103    2.1975    0.8400 C   0  0  0  0  0  0  0  0  0  0  0  0
    1.5305    0.8359    1.1942 C   0  0  0  0  0  0  0  0  0  0  0  0
    2.7366    0.1112    1.0648 C   0  0  0  0  0  0  0  0  0  0  0  0
    3.8222    0.7729    0.4679 C   0  0  0  0  0  0  0  0  0  0  0  0
    3.7314    2.1079    0.0308 C   0  0  0  0  0  0  0  0  0  0  0  0
    2.5294    2.8060    0.2431 C   0  0  0  0  0  0  0  0  0  0  0  0
    0.3810    0.1607    1.7416 N   0  0  0  0  0  0  0  0  0  0  0  0
   -0.5560   -0.4735    0.9630 C   0  0  0  0  0  0  0  0  0  0  0  0
   -1.4586   -1.0136    1.8482 N   0  0  0  0  0  0  0  0  0  0  0  0
   -1.0814   -0.7196    3.1663 C   0  0  0  0  0  0  0  0  0  0  0  0
    0.0702    0.0227    3.0992 C   0  0  0  0  0  0  0  0  0  0  0  0
   -2.6249   -1.7724    1.4767 C   0  0  0  0  0  0  0  0  0  0  0  0
   -3.8567   -1.0951    1.3486 C   0  0  0  0  0  0  0  0  0  0  0  0
   -4.9649   -1.8514    0.9350 C   0  0  0  0  0  0  0  0  0  0  0  0
   -4.8683   -3.2307    0.6696 C   0  0  0  0  0  0  0  0  0  0  0  0
   -3.6289   -3.8663    0.8558 C   0  0  0  0  0  0  0  0  0  0  0  0
   -2.4850   -3.1595    1.2699 C   0  0  0  0  0  0  0  0  0  0  0  0
   -3.9681    0.3753    1.6387 C   0  0  0  0  0  0  0  0  0  0  0  0
   -6.0751   -4.0029    0.1985 C   0  0  0  0  0  0  0  0  0  0  0  0
   -1.1669   -3.8499    1.4797 C   0  0  0  0  0  0  0  0  0  0  0  0
    2.8506   -1.3053    1.5527 C   0  0  0  0  0  0  0  0  0  0  0  0
    4.8975    2.7694   -0.6586 C   0  0  0  0  0  0  0  0  0  0  0  0
    0.1511    2.9699    1.1156 C   0  0  0  0  0  0  0  0  0  0  0  0
   -1.9701   -1.2507    4.5239 Cl  0  0  0  0  0  0  0  0  0  0  0  0
    1.0233    0.7065    4.3400 Cl  0  0  0  0  0  0  0  0  0  0  0  0
   -5.9351   -1.3435    0.8214 H   0  0  0  0  0  0  0  0  0  0  0  0
   -3.5441   -4.9501    0.6823 H   0  0  0  0  0  0  0  0  0  0  0  0
   -3.3510    0.9571    0.9206 H   0  0  0  0  0  0  0  0  0  0  0  0
   -3.6121    0.6139    2.6621 H   0  0  0  0  0  0  0  0  0  0  0  0
   -5.0172    0.7138    1.5523 H   0  0  0  0  0  0  0  0  0  0  0  0
   -5.8940   -5.0945    0.2151 H   0  0  0  0  0  0  0  0  0  0  0  0
   -6.3444   -3.7221   -0.8416 H   0  0  0  0  0  0  0  0  0  0  0  0
   -6.9626   -3.7899    0.8282 H   0  0  0  0  0  0  0  0  0  0  0  0
   -0.7336   -3.6006    2.4701 H   0  0  0  0  0  0  0  0  0  0  0  0
   -0.4265   -3.5360    0.7108 H   0  0  0  0  0  0  0  0  0  0  0  0
   -1.2853   -4.9478    1.4217 H   0  0  0  0  0  0  0  0  0  0  0  0
    4.7690    0.2251    0.3455 H   0  0  0  0  0  0  0  0  0  0  0  0
    2.4579    3.8644   -0.0506 H   0  0  0  0  0  0  0  0  0  0  0  0
    2.5331   -1.3950    2.6115 H   0  0  0  0  0  0  0  0  0  0  0  0
    3.8937   -1.6631    1.4731 H   0  0  0  0  0  0  0  0  0  0  0  0
    2.2052   -1.9735    0.9432 H   0  0  0  0  0  0  0  0  0  0  0  0
    4.8541    3.8719   -0.5688 H   0  0  0  0  0  0  0  0  0  0  0  0
    4.8998    2.5259   -1.7428 H   0  0  0  0  0  0  0  0  0  0  0  0
    5.8653    2.4225   -0.2464 H   0  0  0  0  0  0  0  0  0  0  0  0
   -0.6851    2.6118    0.4763 H   0  0  0  0  0  0  0  0  0  0  0  0
    0.3038    4.0471    0.9180 H   0  0  0  0  0  0  0  0  0  0  0  0
   -0.1663    2.8529    2.1719 H   0  0  0  0  0  0  0  0  0  0  0  0
  1  2  1  0  0  0  0
  1  5  1  0  0  0  0
  1  3  1  0  0  0  0
  1  4  1  0  0  0  0
  5  6  1  0  0  0  0
  5 16  1  0  0  0  0
  5  7  1  0  0  0  0
  7  9  1  0  0  0  0
  7  8  1  0  0  0  0
  9 10  1  0  0  0  0
  9 11  1  0  0  0  0
  9 12  1  0  0  0  0
 13 14  1  0  0  0  0
 13 15  1  0  0  0  0
  7 13  1  0  0  0  0
 13 16  1  0  0  0  0
 16 17  1  0  0  0  0
 16 18  1  0  0  0  0
 19 20  2  0  0  0  0
 19 24  1  0  0  0  0
 19 41  1  0  0  0  0
 20 21  1  0  0  0  0
 20 25  1  0  0  0  0
 21 22  2  0  0  0  0
 21 39  1  0  0  0  0
 22 23  1  0  0  0  0
 22 55  1  0  0  0  0
 23 24  2  0  0  0  0
 23 40  1  0  0  0  0
 24 56  1  0  0  0  0
 25 26  1  0  0  0  0
 25 29  1  0  0  0  0
 26 27  1  0  0  0  0
 27 28  1  0  0  0  0
 27 30  1  0  0  0  0
 28 29  2  0  0  0  0
 28 42  1  0  0  0  0
 29 43  1  0  0  0  0
 30 31  1  0  0  0  0
 30 35  2  0  0  0  0
 31 32  2  0  0  0  0
 31 36  1  0  0  0  0
 32 33  1  0  0  0  0
 32 44  1  0  0  0  0
 33 34  2  0  0  0  0
 33 37  1  0  0  0  0
 34 35  1  0  0  0  0
 34 45  1  0  0  0  0
 35 38  1  0  0  0  0
 36 46  1  0  0  0  0
 36 47  1  0  0  0  0
 36 48  1  0  0  0  0
 37 49  1  0  0  0  0
 37 50  1  0  0  0  0
 37 51  1  0  0  0  0
 38 52  1  0  0  0  0
 38 53  1  0  0  0  0
 38 54  1  0  0  0  0
 39 57  1  0  0  0  0
 39 58  1  0  0  0  0
 39 59  1  0  0  0  0
 40 60  1  0  0  0  0
 40 61  1  0  0  0  0
 40 62  1  0  0  0  0
 41 63  1  0  0  0  0
 41 64  1  0  0  0  0
 41 65  1  0  0  0  0
 16 26  1  0  0  0  0
M  END
>  <DFT-ENERGY>
-3053.06925248

$$$$
