DClIMes-0_A2
  CDK     08122418003D

 73 77  0  0  0  0  0  0  0  0999 V2000
    0.6778    0.2876   -0.0666 Ru  0  0  0  0  0  0  0  0  0  0  0  0
    2.4556    0.2876   -1.4558 O   0  0  0  0  0  0  0  0  0  0  0  0
    1.8880    1.2209    0.9375 C   0  0  0  0  0  0  0  0  0  0  0  0
    1.6552    1.5138    1.9602 H   0  0  0  0  0  0  0  0  0  0  0  0
    2.6911   -0.4876   -2.6816 C   0  0  0  0  0  0  0  0  0  0  0  0
    3.1007    0.2126   -3.4402 H   0  0  0  0  0  0  0  0  0  0  0  0
    1.2687   -0.9279   -2.9975 C   0  0  0  0  0  0  0  0  0  0  0  0
    1.1974   -1.4267   -3.9672 H   0  0  0  0  0  0  0  0  0  0  0  0
    0.8815   -1.6248   -2.2261 H   0  0  0  0  0  0  0  0  0  0  0  0
    0.5812   -0.0566   -3.0053 H   0  0  0  0  0  0  0  0  0  0  0  0
    3.6292   -1.6333   -2.3479 C   0  0  0  0  0  0  0  0  0  0  0  0
    3.6239   -2.4045   -3.1247 H   0  0  0  0  0  0  0  0  0  0  0  0
    4.6630   -1.3049   -2.1979 H   0  0  0  0  0  0  0  0  0  0  0  0
    3.3103   -2.1185   -1.4040 H   0  0  0  0  0  0  0  0  0  0  0  0
    3.4478    1.0860   -0.9508 C   0  0  0  0  0  0  0  0  0  0  0  0
    4.6169    1.4349   -1.6038 C   0  0  0  0  0  0  0  0  0  0  0  0
    4.8359    1.0848   -2.6099 H   0  0  0  0  0  0  0  0  0  0  0  0
    5.5181    2.2659   -0.9463 C   0  0  0  0  0  0  0  0  0  0  0  0
    6.4407    2.5536   -1.4552 H   0  0  0  0  0  0  0  0  0  0  0  0
    5.2681    2.7374    0.3390 C   0  0  0  0  0  0  0  0  0  0  0  0
    5.9929    3.3822    0.8333 H   0  0  0  0  0  0  0  0  0  0  0  0
    4.0984    2.3771    0.9806 C   0  0  0  0  0  0  0  0  0  0  0  0
    3.9052    2.7317    1.9919 H   0  0  0  0  0  0  0  0  0  0  0  0
    3.1629    1.5617    0.3412 C   0  0  0  0  0  0  0  0  0  0  0  0
    1.2758   -1.8985    0.4922 Cl  0  0  0  0  0  0  0  0  0  0  0  0
   -0.1479    1.9988   -1.4300 Cl  0  0  0  0  0  0  0  0  0  0  0  0
   -0.3294    2.8429    3.1716 C   0  0  0  0  0  0  0  0  0  0  0  0
   -0.4028    1.4336    3.2784 C   0  0  0  0  0  0  0  0  0  0  0  0
    0.2900    0.7383    4.2989 C   0  0  0  0  0  0  0  0  0  0  0  0
    1.0019    1.4781    5.2487 C   0  0  0  0  0  0  0  0  0  0  0  0
    1.0435    2.8797    5.1835 C   0  0  0  0  0  0  0  0  0  0  0  0
    0.3925    3.5518    4.1393 C   0  0  0  0  0  0  0  0  0  0  0  0
   -1.2279    0.6956    2.3539 N   0  0  0  0  0  0  0  0  0  0  0  0
   -0.9099    0.2300    1.0627 C   0  0  0  0  0  0  0  0  0  0  0  0
   -2.1056   -0.4127    0.6338 N   0  0  0  0  0  0  0  0  0  0  0  0
   -3.1092   -0.3385    1.6430 C   0  0  0  0  0  0  0  0  0  0  0  0
   -2.5684    0.3441    2.7070 C   0  0  0  0  0  0  0  0  0  0  0  0
   -2.3581   -1.0719   -0.6268 C   0  0  0  0  0  0  0  0  0  0  0  0
   -2.9097   -0.3325   -1.7037 C   0  0  0  0  0  0  0  0  0  0  0  0
   -3.2065   -1.0006   -2.8986 C   0  0  0  0  0  0  0  0  0  0  0  0
   -2.9758   -2.3769   -3.0332 C   0  0  0  0  0  0  0  0  0  0  0  0
   -2.4411   -3.0985   -1.9588 C   0  0  0  0  0  0  0  0  0  0  0  0
   -2.1323   -2.4651   -0.7464 C   0  0  0  0  0  0  0  0  0  0  0  0
   -3.1993    1.1261   -1.6051 C   0  0  0  0  0  0  0  0  0  0  0  0
   -3.3140   -3.0632   -4.3162 C   0  0  0  0  0  0  0  0  0  0  0  0
   -1.5908   -3.2868    0.3728 C   0  0  0  0  0  0  0  0  0  0  0  0
    0.2761   -0.7513    4.3371 C   0  0  0  0  0  0  0  0  0  0  0  0
    1.7880    3.6447    6.2279 C   0  0  0  0  0  0  0  0  0  0  0  0
   -0.9771    3.5451    2.0286 C   0  0  0  0  0  0  0  0  0  0  0  0
   -4.6388   -1.0041    1.4485 Cl  0  0  0  0  0  0  0  0  0  0  0  0
   -3.2397    0.7501    4.1915 Cl  0  0  0  0  0  0  0  0  0  0  0  0
   -3.6249   -0.4392   -3.7319 H   0  0  0  0  0  0  0  0  0  0  0  0
   -2.2645   -4.1677   -2.0578 H   0  0  0  0  0  0  0  0  0  0  0  0
   -2.7820    1.6009   -0.7039 H   0  0  0  0  0  0  0  0  0  0  0  0
   -4.2799    1.3216   -1.6143 H   0  0  0  0  0  0  0  0  0  0  0  0
   -2.7498    1.6783   -2.4495 H   0  0  0  0  0  0  0  0  0  0  0  0
   -2.9452   -4.0964   -4.3581 H   0  0  0  0  0  0  0  0  0  0  0  0
   -2.8908   -2.5341   -5.1822 H   0  0  0  0  0  0  0  0  0  0  0  0
   -4.4038   -3.1030   -4.4639 H   0  0  0  0  0  0  0  0  0  0  0  0
   -2.3307   -4.0151    0.7308 H   0  0  0  0  0  0  0  0  0  0  0  0
   -1.2614   -2.6942    1.2402 H   0  0  0  0  0  0  0  0  0  0  0  0
   -0.6936   -3.8472    0.0554 H   0  0  0  0  0  0  0  0  0  0  0  0
    1.5293    0.9598    6.0471 H   0  0  0  0  0  0  0  0  0  0  0  0
    0.4459    4.6369    4.0769 H   0  0  0  0  0  0  0  0  0  0  0  0
   -0.7382   -1.1417    4.5123 H   0  0  0  0  0  0  0  0  0  0  0  0
    0.9266   -1.1690    5.1156 H   0  0  0  0  0  0  0  0  0  0  0  0
    0.6198   -1.1750    3.3713 H   0  0  0  0  0  0  0  0  0  0  0  0
    1.2913    3.5578    7.2064 H   0  0  0  0  0  0  0  0  0  0  0  0
    1.8645    4.7163    6.0009 H   0  0  0  0  0  0  0  0  0  0  0  0
    2.8135    3.2678    6.3528 H   0  0  0  0  0  0  0  0  0  0  0  0
   -0.6196    3.1363    1.0577 H   0  0  0  0  0  0  0  0  0  0  0  0
   -0.7709    4.6226    2.0091 H   0  0  0  0  0  0  0  0  0  0  0  0
   -2.0701    3.4212    2.0385 H   0  0  0  0  0  0  0  0  0  0  0  0
  1  2  1  0  0  0  0
  1  3  2  0  0  0  0
  3  4  1  0  0  0  0
  2  5  1  0  0  0  0
  5  6  1  0  0  0  0
  5  7  1  0  0  0  0
  7  8  1  0  0  0  0
  7  9  1  0  0  0  0
  7 10  1  0  0  0  0
  5 11  1  0  0  0  0
 11 12  1  0  0  0  0
 11 13  1  0  0  0  0
 11 14  1  0  0  0  0
  2 15  1  0  0  0  0
 15 24  1  0  0  0  0
 15 16  2  0  0  0  0
 16 17  1  0  0  0  0
 16 18  1  0  0  0  0
 18 19  1  0  0  0  0
 18 20  2  0  0  0  0
 20 21  1  0  0  0  0
 20 22  1  0  0  0  0
 22 24  2  0  0  0  0
 22 23  1  0  0  0  0
  3 24  1  0  0  0  0
  1 25  1  0  0  0  0
  1 26  1  0  0  0  0
 27 28  2  0  0  0  0
 27 32  1  0  0  0  0
 27 49  1  0  0  0  0
 28 29  1  0  0  0  0
 28 33  1  0  0  0  0
 29 30  2  0  0  0  0
 29 47  1  0  0  0  0
 30 31  1  0  0  0  0
 30 63  1  0  0  0  0
 31 32  2  0  0  0  0
 31 48  1  0  0  0  0
 32 64  1  0  0  0  0
 33 34  1  0  0  0  0
 33 37  1  0  0  0  0
 34 35  1  0  0  0  0
 35 36  1  0  0  0  0
 35 38  1  0  0  0  0
 36 37  2  0  0  0  0
 36 50  1  0  0  0  0
 37 51  1  0  0  0  0
 38 39  1  0  0  0  0
 38 43  2  0  0  0  0
 39 40  2  0  0  0  0
 39 44  1  0  0  0  0
 40 41  1  0  0  0  0
 40 52  1  0  0  0  0
 41 42  2  0  0  0  0
 41 45  1  0  0  0  0
 42 43  1  0  0  0  0
 42 53  1  0  0  0  0
 43 46  1  0  0  0  0
 44 54  1  0  0  0  0
 44 55  1  0  0  0  0
 44 56  1  0  0  0  0
 45 57  1  0  0  0  0
 45 58  1  0  0  0  0
 45 59  1  0  0  0  0
 46 60  1  0  0  0  0
 46 61  1  0  0  0  0
 46 62  1  0  0  0  0
 47 65  1  0  0  0  0
 47 66  1  0  0  0  0
 47 67  1  0  0  0  0
 48 68  1  0  0  0  0
 48 69  1  0  0  0  0
 48 70  1  0  0  0  0
 49 71  1  0  0  0  0
 49 72  1  0  0  0  0
 49 73  1  0  0  0  0
  1 34  1  0  0  0  0
M  END
> <FrozenCore-PM6_ENERGY>
39.027

> <RMSD_CONF_CG-CS>
0.412716

> <RMSD_CONF_GO-CS>
0.000000

> <UID>


> <DESCRIPTOR_DEFINITION_1>
desc1=( echo "1 * ( e( $hartree_to_kcalmol * ( ( $freeEnergyZ - $freeEnergyD ) - ( $freeEnergyX + 2*$G_Ethene - $freeEnergyD - 2*$G_Propene ) - $DDG_reference_HGII ) / $kT ) ) " | bc -l )

> <DESCRIPTOR_DEFINITION_2>
desc1=( echo "1 * ( e( $hartree_to_kcalmol * ( ( $freeEnergyZ - $freeEnergyD ) - ( $freeEnergyX + 2*$G_Ethene - $freeEnergyD - 2*$G_Propene ) - $DDG_reference_HGII ) / $kT ) ) " | bc -l )

> <DESCRIPTOR_DEFINITION_3>
desc1=( echo "1 * ( e( $hartree_to_kcalmol * ( ( $freeEnergyZ - $freeEnergyD ) - ( $freeEnergyX + 2*$G_Ethene - $freeEnergyD - 2*$G_Propene ) - $DDG_reference_HGII ) / $kT ) ) " | bc -l )

> <WEIGHT_DEFINITION_1>
w1=$( echo "1 / ( 1 + e( $hartree_to_kcalmol * ( ( ( $freeEnergyX + 2*$G_Ethene - $freeEnergyD - 2*$G_Propene ) ) - ( $DG_referenceProductionBarrier + $magnitude4 ) ) / $kT ) )" | bc -l )

> <WEIGHT_DEFINITION_2>
w1=$( echo "1 / ( 1 + e( $hartree_to_kcalmol * ( ( ( $freeEnergyX + 2*$G_Ethene - $freeEnergyD - 2*$G_Propene ) ) - ( $DG_referenceProductionBarrier + $magnitude4 ) ) / $kT ) )" | bc -l )

> <WEIGHT_DEFINITION_3>
w1=$( echo "1 / ( 1 + e( $hartree_to_kcalmol * ( ( ( $freeEnergyX + 2*$G_Ethene - $freeEnergyD - 2*$G_Propene ) ) - ( $DG_referenceProductionBarrier + $magnitude4 ) ) / $kT ) )" | bc -l )

> <WEIGHT_DEFINITION_4>
w1=$( echo "1 / ( 1 + e( $hartree_to_kcalmol * ( ( ( $freeEnergyX + 2*$G_Ethene - $freeEnergyD - 2*$G_Propene ) ) - ( $DG_referenceProductionBarrier + $magnitude4 ) ) / $kT ) )" | bc -l )

> <CALCULATION_OF_OVERALL_FITNESS>
fitness=$( echo "( $desc1 + $desc2 + $desc3 ) * ( $w1 * $w2 * $w3 * $w4 )" | bc -l )

> <freeEnergyA>
-3319.79148416

> <freeEnergyF>
-3319.77551287

> <freeEnergyE>
-3319.79148416

> <freeEnergyC>
-2974.53441029

> <freeEnergyL>
-1841.93265057

> <freeEnergyX>
-3053.06925238

> <freeEnergyZ>
-2974.51299388

> <freeEnergyD>
-2974.55761598

> <G_Propene>
-117.738020895

> <G_Ethene>
-78.4716324751

> <G_HoveydaProd>
-502.204109499

> <G_SIMes>
-924.27249048

> <G_HG_RuCl2_SIMes>
-2402.13728523

> <DG_referenceProductionBarrier>
0.01468968

> <DG_referencePrecursorStabilityHII>
-0.0052201621

> <DG_referencePrecursorStabilityHI>
0.0117775312

> <DDG_referencePrecursorStability>
.0169976933

> <DG_referenceSynt>
0.0226072217

> <hartree_to_kcalmol>
627.49467516

> <boltzmann_constant>
0.0000000000000000000000138066

> <avogadro_number>
602214000000000000000000

> <jmol_to_kcalmol>
0.00023901

> <temp>
313.15

> <kT>
.6223089948281258706000000000

> <magnitude1>
1.43290809

> <magnitude2>
2.86581618

> <magnitude3>
4.29872427

> <magnitude4>
5.73163236

> <DFT_IDENTIFIER>
1723553585723

> <DFT_MACHINE>
158.39.114.73

> <XTB_IDENTIFIER>
NREC

> <XTB_MACHINE>
NREC

> <DESCRIPTOR_1>
3.52819805748000702501

> <DESCRIPTOR_2>
14.734616739416500632

> <DESCRIPTOR_3>
.709687065185832600

> <WEIGHT_1>
.99996802988544329420

> <WEIGHT_2>
.99999998446763043847

> <WEIGHT_3>
.99999999486578033585

> <WEIGHT_4>
.99998986235241621651

> <FITNESS>
18.97170258655535198765

$$$$
