tetraMeSIPh-4_A1
  CDK     08122417133D

 69 73  0  0  0  0  0  0  0  0999 V2000
    1.0946   -0.3703   -0.2133 Ru  0  0  0  0  0  0  0  0  0  0  0  0
    2.8724   -0.3703   -1.6025 O   0  0  0  0  0  0  0  0  0  0  0  0
    2.3048   -1.3036    0.7908 C   0  0  0  0  0  0  0  0  0  0  0  0
    2.0720   -1.5965    1.8135 H   0  0  0  0  0  0  0  0  0  0  0  0
    3.1079    0.4049   -2.8283 C   0  0  0  0  0  0  0  0  0  0  0  0
    3.5228   -0.2939   -3.5854 H   0  0  0  0  0  0  0  0  0  0  0  0
    1.6881    0.8423   -3.1513 C   0  0  0  0  0  0  0  0  0  0  0  0
    1.6206    1.3371   -4.1231 H   0  0  0  0  0  0  0  0  0  0  0  0
    1.3002    1.5445   -2.3838 H   0  0  0  0  0  0  0  0  0  0  0  0
    1.0033   -0.0305   -3.1567 H   0  0  0  0  0  0  0  0  0  0  0  0
    4.0428    1.5528   -2.4917 C   0  0  0  0  0  0  0  0  0  0  0  0
    4.0390    2.3238   -3.2685 H   0  0  0  0  0  0  0  0  0  0  0  0
    5.0764    1.2262   -2.3372 H   0  0  0  0  0  0  0  0  0  0  0  0
    3.7189    2.0376   -1.5490 H   0  0  0  0  0  0  0  0  0  0  0  0
    3.8646   -1.1687   -1.0975 C   0  0  0  0  0  0  0  0  0  0  0  0
    5.0337   -1.5174   -1.7505 C   0  0  0  0  0  0  0  0  0  0  0  0
    5.2525   -1.1671   -2.7566 H   0  0  0  0  0  0  0  0  0  0  0  0
    5.9349   -2.3485   -1.0930 C   0  0  0  0  0  0  0  0  0  0  0  0
    6.8575   -2.6360   -1.6018 H   0  0  0  0  0  0  0  0  0  0  0  0
    5.6849   -2.8201    0.1923 C   0  0  0  0  0  0  0  0  0  0  0  0
    6.4097   -3.4647    0.6867 H   0  0  0  0  0  0  0  0  0  0  0  0
    4.5152   -2.4598    0.8339 C   0  0  0  0  0  0  0  0  0  0  0  0
    4.3220   -2.8144    1.8452 H   0  0  0  0  0  0  0  0  0  0  0  0
    3.5797   -1.6444    0.1945 C   0  0  0  0  0  0  0  0  0  0  0  0
    1.6889    1.8020    0.3420 Cl  0  0  0  0  0  0  0  0  0  0  0  0
    0.2646   -2.0904   -1.5838 Cl  0  0  0  0  0  0  0  0  0  0  0  0
   -0.4207   -0.3229    1.0144 C   0  0  0  0  0  0  0  0  0  0  0  0
   -0.8377   -0.9780    2.1826 N   0  0  0  0  0  0  0  0  0  0  0  0
   -2.0120   -0.2851    2.8678 C   0  0  0  0  0  0  0  0  0  0  0  0
   -2.5909    0.6189    1.6823 C   0  0  0  0  0  0  0  0  0  0  0  0
   -1.4135    0.6248    0.7304 N   0  0  0  0  0  0  0  0  0  0  0  0
   -0.2679   -2.1912    2.7035 C   0  0  0  0  0  0  0  0  0  0  0  0
    0.7580   -4.6064    3.6822 C   0  0  0  0  0  0  0  0  0  0  0  0
   -0.0206   -2.3430    4.0796 C   0  0  0  0  0  0  0  0  0  0  0  0
    0.0138   -3.2479    1.8139 C   0  0  0  0  0  0  0  0  0  0  0  0
    0.5260   -4.4459    2.3107 C   0  0  0  0  0  0  0  0  0  0  0  0
    0.4869   -3.5529    4.5589 C   0  0  0  0  0  0  0  0  0  0  0  0
    0.7436   -5.2623    1.6205 H   0  0  0  0  0  0  0  0  0  0  0  0
    0.6754   -3.6706    5.6255 H   0  0  0  0  0  0  0  0  0  0  0  0
   -1.3286    1.5154   -0.4077 C   0  0  0  0  0  0  0  0  0  0  0  0
   -1.3517    3.1975   -2.6342 C   0  0  0  0  0  0  0  0  0  0  0  0
   -1.1384    2.8982   -0.2345 C   0  0  0  0  0  0  0  0  0  0  0  0
   -1.4683    0.9633   -1.6944 C   0  0  0  0  0  0  0  0  0  0  0  0
   -1.4891    1.8166   -2.8023 C   0  0  0  0  0  0  0  0  0  0  0  0
   -1.1603    3.7320   -1.3543 C   0  0  0  0  0  0  0  0  0  0  0  0
   -0.9355    3.3044    0.7560 H   0  0  0  0  0  0  0  0  0  0  0  0
   -1.5581   -0.1223   -1.8241 H   0  0  0  0  0  0  0  0  0  0  0  0
   -1.6130    1.3963   -3.8001 H   0  0  0  0  0  0  0  0  0  0  0  0
   -1.0144    4.8045   -1.2294 H   0  0  0  0  0  0  0  0  0  0  0  0
   -1.3804    3.8573   -3.4992 H   0  0  0  0  0  0  0  0  0  0  0  0
   -0.1573   -3.1247    0.7362 H   0  0  0  0  0  0  0  0  0  0  0  0
   -0.2145   -1.5186    4.7696 H   0  0  0  0  0  0  0  0  0  0  0  0
    1.1504   -5.5471    4.0616 H   0  0  0  0  0  0  0  0  0  0  0  0
   -1.4735    0.5609    4.0285 C   0  0  0  0  0  0  0  0  0  0  0  0
   -2.2766    1.0806    4.5605 H   0  0  0  0  0  0  0  0  0  0  0  0
   -0.7482    1.3113    3.6845 H   0  0  0  0  0  0  0  0  0  0  0  0
   -0.9466   -0.0635    4.7683 H   0  0  0  0  0  0  0  0  0  0  0  0
   -3.0225   -1.3061    3.3843 C   0  0  0  0  0  0  0  0  0  0  0  0
   -2.6375   -1.8610    4.2505 H   0  0  0  0  0  0  0  0  0  0  0  0
   -3.2776   -2.0599    2.6270 H   0  0  0  0  0  0  0  0  0  0  0  0
   -3.9523   -0.8197    3.7001 H   0  0  0  0  0  0  0  0  0  0  0  0
   -2.9838    2.0249    2.1298 C   0  0  0  0  0  0  0  0  0  0  0  0
   -3.4208    2.5997    1.3011 H   0  0  0  0  0  0  0  0  0  0  0  0
   -2.1277    2.6050    2.4977 H   0  0  0  0  0  0  0  0  0  0  0  0
   -3.7342    1.9906    2.9277 H   0  0  0  0  0  0  0  0  0  0  0  0
   -3.7763   -0.0307    0.9537 C   0  0  0  0  0  0  0  0  0  0  0  0
   -3.5499   -1.0572    0.6364 H   0  0  0  0  0  0  0  0  0  0  0  0
   -4.0291    0.5264    0.0411 H   0  0  0  0  0  0  0  0  0  0  0  0
   -4.6755   -0.0583    1.5764 H   0  0  0  0  0  0  0  0  0  0  0  0
  1  2  1  0  0  0  0
  1  3  2  0  0  0  0
  3  4  1  0  0  0  0
  2  5  1  0  0  0  0
  5  6  1  0  0  0  0
  5  7  1  0  0  0  0
  7  8  1  0  0  0  0
  7  9  1  0  0  0  0
  7 10  1  0  0  0  0
  5 11  1  0  0  0  0
 11 12  1  0  0  0  0
 11 13  1  0  0  0  0
 11 14  1  0  0  0  0
  2 15  1  0  0  0  0
 15 24  1  0  0  0  0
 15 16  2  0  0  0  0
 16 17  1  0  0  0  0
 16 18  1  0  0  0  0
 18 19  1  0  0  0  0
 18 20  2  0  0  0  0
 20 21  1  0  0  0  0
 20 22  1  0  0  0  0
 22 24  2  0  0  0  0
 22 23  1  0  0  0  0
  3 24  1  0  0  0  0
  1 25  1  0  0  0  0
  1 26  1  0  0  0  0
 27 28  1  0  0  0  0
 27 31  1  0  0  0  0
 28 29  1  0  0  0  0
 30 31  1  0  0  0  0
 32 35  2  0  0  0  0
 35 36  1  0  0  0  0
 33 36  2  0  0  0  0
 33 37  1  0  0  0  0
 34 37  2  0  0  0  0
 32 34  1  0  0  0  0
 36 38  1  0  0  0  0
 37 39  1  0  0  0  0
 28 32  1  0  0  0  0
 40 43  2  0  0  0  0
 43 44  1  0  0  0  0
 41 44  2  0  0  0  0
 41 45  1  0  0  0  0
 42 45  2  0  0  0  0
 40 42  1  0  0  0  0
 44 48  1  0  0  0  0
 45 49  1  0  0  0  0
 41 50  1  0  0  0  0
 42 46  1  0  0  0  0
 43 47  1  0  0  0  0
 31 40  1  0  0  0  0
 35 51  1  0  0  0  0
 34 52  1  0  0  0  0
 33 53  1  0  0  0  0
 29 30  1  0  0  0  0
 54 55  1  0  0  0  0
 54 56  1  0  0  0  0
 54 57  1  0  0  0  0
 29 54  1  0  0  0  0
 58 59  1  0  0  0  0
 58 60  1  0  0  0  0
 58 61  1  0  0  0  0
 29 58  1  0  0  0  0
 62 63  1  0  0  0  0
 62 64  1  0  0  0  0
 62 65  1  0  0  0  0
 30 62  1  0  0  0  0
 66 67  1  0  0  0  0
 66 68  1  0  0  0  0
 66 69  1  0  0  0  0
 30 66  1  0  0  0  0
  1 27  1  0  0  0  0
M  END
> <FrozenCore-PM6_ENERGY>
115.413

> <RMSD_CONF_CG-CS>
1.325656

> <RMSD_CONF_GO-CS>
0.000000

> <UID>


> <DESCRIPTOR_DEFINITION_1>
desc1=( echo "1 * ( e( $hartree_to_kcalmol * ( ( $freeEnergyZ - $freeEnergyD ) - ( $freeEnergyX + 2*$G_Ethene - $freeEnergyD - 2*$G_Propene ) - $DDG_reference_HGII ) / $kT ) ) " | bc -l )

> <DESCRIPTOR_DEFINITION_2>
desc1=( echo "1 * ( e( $hartree_to_kcalmol * ( ( $freeEnergyZ - $freeEnergyD ) - ( $freeEnergyX + 2*$G_Ethene - $freeEnergyD - 2*$G_Propene ) - $DDG_reference_HGII ) / $kT ) ) " | bc -l )

> <DESCRIPTOR_DEFINITION_3>
desc1=( echo "1 * ( e( $hartree_to_kcalmol * ( ( $freeEnergyZ - $freeEnergyD ) - ( $freeEnergyX + 2*$G_Ethene - $freeEnergyD - 2*$G_Propene ) - $DDG_reference_HGII ) / $kT ) ) " | bc -l )

> <WEIGHT_DEFINITION_1>
w1=$( echo "1 / ( 1 + e( $hartree_to_kcalmol * ( ( ( $freeEnergyX + 2*$G_Ethene - $freeEnergyD - 2*$G_Propene ) ) - ( $DG_referenceProductionBarrier + $magnitude4 ) ) / $kT ) )" | bc -l )

> <WEIGHT_DEFINITION_2>
w1=$( echo "1 / ( 1 + e( $hartree_to_kcalmol * ( ( ( $freeEnergyX + 2*$G_Ethene - $freeEnergyD - 2*$G_Propene ) ) - ( $DG_referenceProductionBarrier + $magnitude4 ) ) / $kT ) )" | bc -l )

> <WEIGHT_DEFINITION_3>
w1=$( echo "1 / ( 1 + e( $hartree_to_kcalmol * ( ( ( $freeEnergyX + 2*$G_Ethene - $freeEnergyD - 2*$G_Propene ) ) - ( $DG_referenceProductionBarrier + $magnitude4 ) ) / $kT ) )" | bc -l )

> <WEIGHT_DEFINITION_4>
w1=$( echo "1 / ( 1 + e( $hartree_to_kcalmol * ( ( ( $freeEnergyX + 2*$G_Ethene - $freeEnergyD - 2*$G_Propene ) ) - ( $DG_referenceProductionBarrier + $magnitude4 ) ) / $kT ) )" | bc -l )

> <CALCULATION_OF_OVERALL_FITNESS>
fitness=$( echo "( $desc1 + $desc2 + $desc3 ) * ( $w1 * $w2 * $w3 * $w4 )" | bc -l )

> <freeEnergyA>
-2323.60474936

> <freeEnergyF>
-2323.58763917

> <freeEnergyE>
-2323.60474936

> <freeEnergyC>
-1978.34332774

> <freeEnergyL>
-845.737375316

> <freeEnergyX>
-2056.87590335

> <freeEnergyZ>
-1978.33235253

> <freeEnergyD>
-1978.36672401

> <G_Propene>
-117.738020895

> <G_Ethene>
-78.4716324751

> <G_HoveydaProd>
-502.204109499

> <G_SIMes>
-924.27249048

> <G_HG_RuCl2_SIMes>
-2402.13728523

> <DG_referenceProductionBarrier>
0.01468968

> <DG_referencePrecursorStabilityHII>
-0.0052201621

> <DG_referencePrecursorStabilityHI>
0.0117775312

> <DDG_referencePrecursorStability>
.0169976933

> <DG_referenceSynt>
0.0226072217

> <hartree_to_kcalmol>
627.49467516

> <boltzmann_constant>
0.0000000000000000000000138066

> <avogadro_number>
602214000000000000000000

> <jmol_to_kcalmol>
0.00023901

> <temp>
313.15

> <kT>
.6223089948281258706000000000

> <magnitude1>
1.43290809

> <magnitude2>
2.86581618

> <magnitude3>
4.29872427

> <magnitude4>
5.73163236

> <DFT_IDENTIFIER>
1723695742684

> <DFT_MACHINE>
158.39.114.73

> <XTB_IDENTIFIER>
NREC

> <XTB_MACHINE>
NREC

> <DESCRIPTOR_1>
.00000960924018575667

> <DESCRIPTOR_2>
6.760615205779271832

> <DESCRIPTOR_3>
0.0000000001

> <WEIGHT_1>
.99961930925459590213

> <WEIGHT_2>
.99999875498278883593

> <WEIGHT_3>
.99999999999906568176

> <WEIGHT_4>
.99999678485491581496

> <FITNESS>
6.75802096583518891801

$$$$
