
  CDK     08142420433D

 61 64  0  0  0  0  0  0  0  0999 V2000
   -0.6570    3.5128   -2.2452 C   0  0  0  0  0  0  0  0  0  0  0  0
    0.3426    3.4353   -2.7077 H   0  0  0  0  0  0  0  0  0  0  0  0
   -1.1561    4.4457   -2.5918 H   0  0  0  0  0  0  0  0  0  0  0  0
   -1.2704    2.6655   -2.6079 H   0  0  0  0  0  0  0  0  0  0  0  0
   -0.5760    3.5419   -0.7374 C   0  0  0  0  0  0  0  0  0  0  0  0
   -1.5373    3.6639   -0.2023 H   0  0  0  0  0  0  0  0  0  0  0  0
    0.5607    4.0248   -0.0345 C   0  0  0  0  0  0  0  0  0  0  0  0
    1.4761    4.1685   -0.6354 H   0  0  0  0  0  0  0  0  0  0  0  0
    0.3993    4.8582    1.2150 C   0  0  0  0  0  0  0  0  0  0  0  0
    1.3440    4.9678    1.7800 H   0  0  0  0  0  0  0  0  0  0  0  0
    0.0650    5.8760    0.9188 H   0  0  0  0  0  0  0  0  0  0  0  0
   -0.3737    4.4192    1.8765 H   0  0  0  0  0  0  0  0  0  0  0  0
    1.5613    2.2497    1.0762 C   0  0  0  0  0  0  0  0  0  0  0  0
    1.3997    2.5445    2.1348 H   0  0  0  0  0  0  0  0  0  0  0  0
    2.5989    2.2936    0.6773 H   0  0  0  0  0  0  0  0  0  0  0  0
    0.1805    1.6424    0.0345 Ru  0  0  0  0  0  0  0  0  0  0  0  0
   -1.3601    1.8878    1.8865 Cl  0  0  0  0  0  0  0  0  0  0  0  0
    1.7241    1.3321   -1.7906 Cl  0  0  0  0  0  0  0  0  0  0  0  0
    0.0974   -0.3357    0.0526 C   0  0  0  0  0  0  0  0  0  0  0  0
    0.8604   -1.2319    0.7262 N   0  0  0  0  0  0  0  0  0  0  0  0
    0.3320   -2.6272    0.5165 C   0  0  0  0  0  0  0  0  0  0  0  0
   -0.2911   -2.4527   -0.9205 C   0  0  0  0  0  0  0  0  0  0  0  0
   -0.6947   -1.0144   -0.8188 N   0  0  0  0  0  0  0  0  0  0  0  0
    1.6913   -0.8820    1.8347 C   0  0  0  0  0  0  0  0  0  0  0  0
    3.3446   -0.2097    3.9974 C   0  0  0  0  0  0  0  0  0  0  0  0
    1.1281   -0.3228    2.9968 C   0  0  0  0  0  0  0  0  0  0  0  0
    3.0785   -1.0899    1.7467 C   0  0  0  0  0  0  0  0  0  0  0  0
    3.9023   -0.7588    2.8319 C   0  0  0  0  0  0  0  0  0  0  0  0
    1.9608    0.0142    4.0732 C   0  0  0  0  0  0  0  0  0  0  0  0
    4.9879   -0.9164    2.7594 H   0  0  0  0  0  0  0  0  0  0  0  0
    1.5209    0.4633    4.9752 H   0  0  0  0  0  0  0  0  0  0  0  0
   -1.6368   -0.3140   -1.6257 C   0  0  0  0  0  0  0  0  0  0  0  0
   -3.5316    1.1379   -3.1179 C   0  0  0  0  0  0  0  0  0  0  0  0
   -2.6035    0.4755   -0.9676 C   0  0  0  0  0  0  0  0  0  0  0  0
   -1.6147   -0.3657   -3.0331 C   0  0  0  0  0  0  0  0  0  0  0  0
   -2.5704    0.3464   -3.7693 C   0  0  0  0  0  0  0  0  0  0  0  0
   -3.5348    1.2095   -1.7179 C   0  0  0  0  0  0  0  0  0  0  0  0
   -2.6158    0.5138    0.1312 H   0  0  0  0  0  0  0  0  0  0  0  0
   -0.8306   -0.9294   -3.5507 H   0  0  0  0  0  0  0  0  0  0  0  0
   -2.5450    0.3029   -4.8676 H   0  0  0  0  0  0  0  0  0  0  0  0
   -4.2750    1.8298   -1.1924 H   0  0  0  0  0  0  0  0  0  0  0  0
   -4.2696    1.7032   -3.7047 H   0  0  0  0  0  0  0  0  0  0  0  0
    3.5030   -1.4825    0.8133 H   0  0  0  0  0  0  0  0  0  0  0  0
    0.0510   -0.1051    3.0218 H   0  0  0  0  0  0  0  0  0  0  0  0
    3.9932    0.0553    4.8449 H   0  0  0  0  0  0  0  0  0  0  0  0
   -0.7287   -2.8961    1.5966 C   0  0  0  0  0  0  0  0  0  0  0  0
   -1.1469   -3.9170    1.5027 H   0  0  0  0  0  0  0  0  0  0  0  0
   -1.5553   -2.1616    1.5390 H   0  0  0  0  0  0  0  0  0  0  0  0
   -0.2631   -2.8104    2.5976 H   0  0  0  0  0  0  0  0  0  0  0  0
    1.4368   -3.6767    0.6003 C   0  0  0  0  0  0  0  0  0  0  0  0
    1.8225   -3.7401    1.6358 H   0  0  0  0  0  0  0  0  0  0  0  0
    2.2863   -3.4519   -0.0684 H   0  0  0  0  0  0  0  0  0  0  0  0
    1.0290   -4.6718    0.3313 H   0  0  0  0  0  0  0  0  0  0  0  0
   -1.4955   -3.3495   -1.1932 C   0  0  0  0  0  0  0  0  0  0  0  0
   -1.8857   -3.1647   -2.2128 H   0  0  0  0  0  0  0  0  0  0  0  0
   -2.3190   -3.1718   -0.4784 H   0  0  0  0  0  0  0  0  0  0  0  0
   -1.1966   -4.4150   -1.1359 H   0  0  0  0  0  0  0  0  0  0  0  0
    0.7734   -2.6111   -2.0207 C   0  0  0  0  0  0  0  0  0  0  0  0
    1.5996   -1.8875   -1.8797 H   0  0  0  0  0  0  0  0  0  0  0  0
    0.3271   -2.4294   -3.0154 H   0  0  0  0  0  0  0  0  0  0  0  0
    1.1778   -3.6416   -2.0314 H   0  0  0  0  0  0  0  0  0  0  0  0
  1  2  1  0  0  0  0
  1  5  1  0  0  0  0
  3  1  1  0  0  0  0
  4  1  1  0  0  0  0
  5  6  1  0  0  0  0
  5 16  1  0  0  0  0
  5  7  1  0  0  0  0
  7  9  1  0  0  0  0
  7  8  1  0  0  0  0
  9 10  1  0  0  0  0
 11  9  1  0  0  0  0
 12  9  1  0  0  0  0
 13 14  1  0  0  0  0
 13 15  1  0  0  0  0
 13  7  1  0  0  0  0
 16 13  1  0  0  0  0
 16 17  1  0  0  0  0
 16 18  1  0  0  0  0
 19 20  1  0  0  0  0
 19 23  1  0  0  0  0
 20 21  1  0  0  0  0
 22 23  1  0  0  0  0
 24 27  2  0  0  0  0
 27 28  1  0  0  0  0
 25 28  2  0  0  0  0
 25 29  1  0  0  0  0
 26 29  2  0  0  0  0
 24 26  1  0  0  0  0
 28 30  1  0  0  0  0
 29 31  1  0  0  0  0
 20 24  1  0  0  0  0
 32 35  2  0  0  0  0
 35 36  1  0  0  0  0
 33 36  2  0  0  0  0
 33 37  1  0  0  0  0
 34 37  2  0  0  0  0
 32 34  1  0  0  0  0
 36 40  1  0  0  0  0
 37 41  1  0  0  0  0
 33 42  1  0  0  0  0
 34 38  1  0  0  0  0
 35 39  1  0  0  0  0
 23 32  1  0  0  0  0
 27 43  1  0  0  0  0
 26 44  1  0  0  0  0
 25 45  1  0  0  0  0
 21 22  1  0  0  0  0
 46 47  1  0  0  0  0
 46 48  1  0  0  0  0
 46 49  1  0  0  0  0
 21 46  1  0  0  0  0
 50 51  1  0  0  0  0
 50 52  1  0  0  0  0
 50 53  1  0  0  0  0
 21 50  1  0  0  0  0
 54 55  1  0  0  0  0
 54 56  1  0  0  0  0
 54 57  1  0  0  0  0
 22 54  1  0  0  0  0
 58 59  1  0  0  0  0
 58 60  1  0  0  0  0
 58 61  1  0  0  0  0
 22 58  1  0  0  0  0
 16 19  1  0  0  0  0
M  END
>  <DFT-ENERGY>
-2056.87590387

$$$$
