
  CDK     08152406203D

 80 85  0  0  0  0  0  0  0  0999 V2000
    1.1319   -0.9138   -3.3841 H   0  0  0  0  0  0  0  0  0  0  0  0
    2.3602   -0.8480   -3.4128 C   0  0  0  0  0  0  0  0  0  0  0  0
    2.3331   -0.6722   -4.5078 H   0  0  0  0  0  0  0  0  0  0  0  0
    2.6714   -2.1734   -2.8197 C   0  0  0  0  0  0  0  0  0  0  0  0
    3.6063   -2.3018   -2.2549 H   0  0  0  0  0  0  0  0  0  0  0  0
    2.3198   -3.0529   -3.3854 H   0  0  0  0  0  0  0  0  0  0  0  0
    1.2076   -1.2491   -1.6440 Ru  0  0  0  0  0  0  0  0  0  0  0  0
    2.4904    0.2431   -2.4114 C   0  0  0  0  0  0  0  0  0  0  0  0
    3.4247    0.3157   -1.8370 H   0  0  0  0  0  0  0  0  0  0  0  0
    2.0104    1.2039   -2.6681 H   0  0  0  0  0  0  0  0  0  0  0  0
    2.9401   -1.3213    0.0383 Cl  0  0  0  0  0  0  0  0  0  0  0  0
   -0.6183   -2.2631   -2.8438 Cl  0  0  0  0  0  0  0  0  0  0  0  0
   -0.6673   -0.6539    0.5551 N   0  0  0  0  0  0  0  0  0  0  0  0
   -1.6758   -1.1910    1.5829 C   0  0  0  0  0  0  0  0  0  0  0  0
   -1.5305   -2.7061    1.3641 C   0  0  0  0  0  0  0  0  0  0  0  0
   -2.3201   -3.0481    0.6658 H   0  0  0  0  0  0  0  0  0  0  0  0
   -1.6365   -3.2657    2.3111 H   0  0  0  0  0  0  0  0  0  0  0  0
   -0.1446   -2.9367    0.6968 C   0  0  0  0  0  0  0  0  0  0  0  0
    0.1249   -1.5895    0.0281 C   0  0  0  0  0  0  0  0  0  0  0  0
   -0.1497   -4.1521   -0.2722 C   0  0  0  0  0  0  0  0  0  0  0  0
    0.7126   -4.0409   -0.9592 H   0  0  0  0  0  0  0  0  0  0  0  0
   -1.0634   -4.1863   -0.8907 H   0  0  0  0  0  0  0  0  0  0  0  0
    0.0675   -5.3791    0.6308 C   0  0  0  0  0  0  0  0  0  0  0  0
    0.5214   -6.2315    0.0878 H   0  0  0  0  0  0  0  0  0  0  0  0
   -0.8947   -5.7441    1.0564 H   0  0  0  0  0  0  0  0  0  0  0  0
    0.9540   -4.8185    1.7133 C   0  0  0  0  0  0  0  0  0  0  0  0
    1.7716   -5.4996    2.6253 C   0  0  0  0  0  0  0  0  0  0  0  0
    1.8454   -6.5967    2.6331 H   0  0  0  0  0  0  0  0  0  0  0  0
    2.5377   -4.7862    3.5551 C   0  0  0  0  0  0  0  0  0  0  0  0
    2.4770   -3.3643    3.5709 C   0  0  0  0  0  0  0  0  0  0  0  0
    1.6491   -2.6855    2.6600 C   0  0  0  0  0  0  0  0  0  0  0  0
    1.6458   -1.5921    2.6397 H   0  0  0  0  0  0  0  0  0  0  0  0
    0.8948   -3.4139    1.7308 C   0  0  0  0  0  0  0  0  0  0  0  0
    3.3008   -5.4891    4.4622 O   0  0  0  0  0  0  0  0  0  0  0  0
    4.7182   -5.3171    4.3168 C   0  0  0  0  0  0  0  0  0  0  0  0
    5.0539   -5.6357    3.3047 H   0  0  0  0  0  0  0  0  0  0  0  0
    5.0249   -4.2656    4.4914 H   0  0  0  0  0  0  0  0  0  0  0  0
    5.1840   -5.9711    5.0779 H   0  0  0  0  0  0  0  0  0  0  0  0
    3.2671   -2.7427    4.5059 O   0  0  0  0  0  0  0  0  0  0  0  0
    3.2617   -1.3194    4.5025 C   0  0  0  0  0  0  0  0  0  0  0  0
    3.5835   -0.9084    3.5197 H   0  0  0  0  0  0  0  0  0  0  0  0
    2.2549   -0.9144    4.7488 H   0  0  0  0  0  0  0  0  0  0  0  0
    3.9780   -1.0118    5.2854 H   0  0  0  0  0  0  0  0  0  0  0  0
   -1.2992   -0.7359    2.9942 C   0  0  0  0  0  0  0  0  0  0  0  0
   -2.0309   -1.1558    3.7122 H   0  0  0  0  0  0  0  0  0  0  0  0
   -1.3452    0.3668    3.0726 H   0  0  0  0  0  0  0  0  0  0  0  0
   -0.2943   -1.0833    3.2909 H   0  0  0  0  0  0  0  0  0  0  0  0
   -3.0933   -0.7188    1.2657 C   0  0  0  0  0  0  0  0  0  0  0  0
   -3.7825   -1.1688    2.0078 H   0  0  0  0  0  0  0  0  0  0  0  0
   -3.4125   -1.0488    0.2615 H   0  0  0  0  0  0  0  0  0  0  0  0
   -3.1897    0.3819    1.3344 H   0  0  0  0  0  0  0  0  0  0  0  0
   -0.6607    0.7796    0.2620 C   0  0  0  0  0  0  0  0  0  0  0  0
    0.1567    1.6487    1.0440 C   0  0  0  0  0  0  0  0  0  0  0  0
   -1.5727    1.3131   -0.6961 C   0  0  0  0  0  0  0  0  0  0  0  0
   -0.0439    3.0372    0.9242 C   0  0  0  0  0  0  0  0  0  0  0  0
   -0.9935    3.5727    0.0539 C   0  0  0  0  0  0  0  0  0  0  0  0
    0.5776    3.7125    1.5288 H   0  0  0  0  0  0  0  0  0  0  0  0
   -1.7223    2.7115   -0.7664 C   0  0  0  0  0  0  0  0  0  0  0  0
   -2.4297    3.1283   -1.4968 H   0  0  0  0  0  0  0  0  0  0  0  0
   -1.1430    4.6604   -0.0068 H   0  0  0  0  0  0  0  0  0  0  0  0
    1.3190    1.2014    1.9230 C   0  0  0  0  0  0  0  0  0  0  0  0
    1.3703    0.0974    1.8912 H   0  0  0  0  0  0  0  0  0  0  0  0
    1.2022    1.6758    3.3817 C   0  0  0  0  0  0  0  0  0  0  0  0
    1.1542    2.7823    3.4407 H   0  0  0  0  0  0  0  0  0  0  0  0
    2.0975    1.3621    3.9550 H   0  0  0  0  0  0  0  0  0  0  0  0
    0.3096    1.2749    3.8967 H   0  0  0  0  0  0  0  0  0  0  0  0
    2.6358    1.7306    1.3201 C   0  0  0  0  0  0  0  0  0  0  0  0
    2.6951    2.8352    1.4094 H   0  0  0  0  0  0  0  0  0  0  0  0
    2.7259    1.4509    0.2557 H   0  0  0  0  0  0  0  0  0  0  0  0
    3.5040    1.2943    1.8534 H   0  0  0  0  0  0  0  0  0  0  0  0
   -2.3148    0.4925   -1.7435 C   0  0  0  0  0  0  0  0  0  0  0  0
   -2.1314   -0.5827   -1.5562 H   0  0  0  0  0  0  0  0  0  0  0  0
   -1.7172    0.8190   -3.1281 C   0  0  0  0  0  0  0  0  0  0  0  0
   -2.1278    0.1358   -3.8965 H   0  0  0  0  0  0  0  0  0  0  0  0
   -0.6171    0.6932   -3.1203 H   0  0  0  0  0  0  0  0  0  0  0  0
   -1.9470    1.8645   -3.4205 H   0  0  0  0  0  0  0  0  0  0  0  0
   -3.8312    0.7504   -1.7761 C   0  0  0  0  0  0  0  0  0  0  0  0
   -4.3093    0.0767   -2.5153 H   0  0  0  0  0  0  0  0  0  0  0  0
   -4.0600    1.7901   -2.0882 H   0  0  0  0  0  0  0  0  0  0  0  0
   -4.3169    0.5845   -0.7963 H   0  0  0  0  0  0  0  0  0  0  0  0
  1  2  1  0  0  0  0
  1  7  1  0  0  0  0
  2  3  1  0  0  0  0
  2  4  1  0  0  0  0
  4  5  1  0  0  0  0
  4  6  1  0  0  0  0
  7  8  1  0  0  0  0
  4  7  1  0  0  0  0
  2  8  1  0  0  0  0
  8  9  1  0  0  0  0
  8 10  1  0  0  0  0
  7 11  1  0  0  0  0
  7 12  1  0  0  0  0
 13 14  1  0  0  0  0
 13 19  1  0  0  0  0
 14 15  1  0  0  0  0
 15 16  1  0  0  0  0
 15 17  1  0  0  0  0
 15 18  1  0  0  0  0
 18 19  1  0  0  0  0
 18 20  1  0  0  0  0
 18 33  1  0  0  0  0
 20 21  1  0  0  0  0
 20 22  1  0  0  0  0
 20 23  1  0  0  0  0
 23 24  1  0  0  0  0
 23 25  1  0  0  0  0
 23 26  1  0  0  0  0
 26 27  1  0  0  0  0
 26 33  2  0  0  0  0
 27 28  1  0  0  0  0
 27 29  2  0  0  0  0
 29 30  1  0  0  0  0
 29 34  1  0  0  0  0
 30 31  2  0  0  0  0
 30 39  1  0  0  0  0
 31 32  1  0  0  0  0
 31 33  1  0  0  0  0
 34 35  1  0  0  0  0
 35 36  1  0  0  0  0
 35 37  1  0  0  0  0
 35 38  1  0  0  0  0
 39 40  1  0  0  0  0
 40 41  1  0  0  0  0
 40 42  1  0  0  0  0
 40 43  1  0  0  0  0
 44 45  1  0  0  0  0
 44 46  1  0  0  0  0
 44 47  1  0  0  0  0
 14 44  1  0  0  0  0
 48 49  1  0  0  0  0
 48 50  1  0  0  0  0
 48 51  1  0  0  0  0
 14 48  1  0  0  0  0
 52 53  1  0  0  0  0
 52 54  2  0  0  0  0
 53 55  2  0  0  0  0
 55 56  1  0  0  0  0
 55 57  1  0  0  0  0
 56 58  2  0  0  0  0
 58 59  1  0  0  0  0
 54 58  1  0  0  0  0
 13 52  1  0  0  0  0
 56 60  1  0  0  0  0
 61 62  1  0  0  0  0
 61 63  1  0  0  0  0
 63 64  1  0  0  0  0
 63 65  1  0  0  0  0
 63 66  1  0  0  0  0
 61 67  1  0  0  0  0
 67 68  1  0  0  0  0
 67 69  1  0  0  0  0
 67 70  1  0  0  0  0
 53 61  1  0  0  0  0
 71 72  1  0  0  0  0
 71 73  1  0  0  0  0
 73 74  1  0  0  0  0
 73 75  1  0  0  0  0
 73 76  1  0  0  0  0
 71 77  1  0  0  0  0
 77 78  1  0  0  0  0
 77 79  1  0  0  0  0
 77 80  1  0  0  0  0
 54 71  1  0  0  0  0
  7 19  1  0  0  0  0
M  END
>  <DFT-ENERGY>
-2425.45749066

$$$$
