
  CDK     08152406233D

 72 77  0  0  0  0  0  0  0  0999 V2000
    1.2697    0.5024   -3.0459 H   0  0  0  0  0  0  0  0  0  0  0  0
    1.8818    1.5651   -3.1462 C   0  0  0  0  0  0  0  0  0  0  0  0
    1.4971    1.6978   -4.1784 H   0  0  0  0  0  0  0  0  0  0  0  0
    1.2787    2.2184   -1.9542 C   0  0  0  0  0  0  0  0  0  0  0  0
    1.8544    3.0048   -1.4457 H   0  0  0  0  0  0  0  0  0  0  0  0
    0.1842    2.3631   -1.9739 H   0  0  0  0  0  0  0  0  0  0  0  0
    1.9431    0.2860   -1.4192 Ru  0  0  0  0  0  0  0  0  0  0  0  0
    3.2509    1.0721   -2.8569 C   0  0  0  0  0  0  0  0  0  0  0  0
    3.9780    1.7538   -2.3923 H   0  0  0  0  0  0  0  0  0  0  0  0
    3.6608    0.3276   -3.5604 H   0  0  0  0  0  0  0  0  0  0  0  0
    3.3095    1.5801    0.0903 Cl  0  0  0  0  0  0  0  0  0  0  0  0
    1.5572   -1.7501   -2.6399 Cl  0  0  0  0  0  0  0  0  0  0  0  0
    0.8250   -1.1219    0.9161 N   0  0  0  0  0  0  0  0  0  0  0  0
    0.9124   -2.3376    1.8517 C   0  0  0  0  0  0  0  0  0  0  0  0
    2.2316   -2.9719    1.3743 C   0  0  0  0  0  0  0  0  0  0  0  0
    3.0399   -1.8492    0.6642 C   0  0  0  0  0  0  0  0  0  0  0  0
    1.9391   -0.8904    0.2202 C   0  0  0  0  0  0  0  0  0  0  0  0
    4.1168   -1.2740    1.6095 C   0  0  0  0  0  0  0  0  0  0  0  0
    5.3469   -1.9167    1.3532 C   0  0  0  0  0  0  0  0  0  0  0  0
    5.2206   -2.8655    0.1879 C   0  0  0  0  0  0  0  0  0  0  0  0
    3.9290   -2.3812   -0.4927 C   0  0  0  0  0  0  0  0  0  0  0  0
    4.0218   -0.3479    2.6556 C   0  0  0  0  0  0  0  0  0  0  0  0
    5.1513   -0.0753    3.4441 C   0  0  0  0  0  0  0  0  0  0  0  0
    6.3720   -0.7219    3.1928 C   0  0  0  0  0  0  0  0  0  0  0  0
    6.4729   -1.6472    2.1421 C   0  0  0  0  0  0  0  0  0  0  0  0
    2.0049   -3.7642    0.6336 H   0  0  0  0  0  0  0  0  0  0  0  0
    2.7900   -3.4267    2.2128 H   0  0  0  0  0  0  0  0  0  0  0  0
    4.1583   -1.5255   -1.1596 H   0  0  0  0  0  0  0  0  0  0  0  0
    3.4095   -3.1429   -1.0994 H   0  0  0  0  0  0  0  0  0  0  0  0
    6.0967   -2.8451   -0.4897 H   0  0  0  0  0  0  0  0  0  0  0  0
    5.1185   -3.9131    0.5508 H   0  0  0  0  0  0  0  0  0  0  0  0
    7.4289   -2.1494    1.9303 H   0  0  0  0  0  0  0  0  0  0  0  0
    7.2523   -0.4935    3.8112 H   0  0  0  0  0  0  0  0  0  0  0  0
    5.0781    0.6656    4.2533 H   0  0  0  0  0  0  0  0  0  0  0  0
    3.0917    0.1991    2.8458 H   0  0  0  0  0  0  0  0  0  0  0  0
   -1.7708    1.3642    1.9943 C   0  0  0  0  0  0  0  0  0  0  0  0
   -0.5011    0.7925    1.7882 C   0  0  0  0  0  0  0  0  0  0  0  0
   -0.4020   -0.3277    0.9112 C   0  0  0  0  0  0  0  0  0  0  0  0
   -1.5300   -0.7564    0.1530 C   0  0  0  0  0  0  0  0  0  0  0  0
   -2.7701   -0.1370    0.4000 C   0  0  0  0  0  0  0  0  0  0  0  0
   -2.9070    0.8867    1.3392 C   0  0  0  0  0  0  0  0  0  0  0  0
   -3.6471   -0.4674   -0.1740 H   0  0  0  0  0  0  0  0  0  0  0  0
   -1.8576    2.2183    2.6809 H   0  0  0  0  0  0  0  0  0  0  0  0
   -3.8914    1.3375    1.5316 H   0  0  0  0  0  0  0  0  0  0  0  0
    0.6906    1.4946    2.4231 C   0  0  0  0  0  0  0  0  0  0  0  0
    0.7948    2.9225    1.8515 C   0  0  0  0  0  0  0  0  0  0  0  0
    0.6370    1.5550    3.9581 C   0  0  0  0  0  0  0  0  0  0  0  0
    1.6076    0.9673    2.1043 H   0  0  0  0  0  0  0  0  0  0  0  0
   -0.2413    2.1360    4.3076 H   0  0  0  0  0  0  0  0  0  0  0  0
    1.5419    2.0652    4.3467 H   0  0  0  0  0  0  0  0  0  0  0  0
    0.5835    0.5544    4.4254 H   0  0  0  0  0  0  0  0  0  0  0  0
    1.7408    3.3953    2.1809 H   0  0  0  0  0  0  0  0  0  0  0  0
   -0.0505    3.5535    2.1965 H   0  0  0  0  0  0  0  0  0  0  0  0
    0.7982    2.9053    0.7468 H   0  0  0  0  0  0  0  0  0  0  0  0
   -1.4594   -1.7335   -1.0133 C   0  0  0  0  0  0  0  0  0  0  0  0
   -2.5024   -2.8616   -0.9533 C   0  0  0  0  0  0  0  0  0  0  0  0
   -1.6460   -0.9328   -2.3190 C   0  0  0  0  0  0  0  0  0  0  0  0
   -0.4456   -2.1757   -1.0494 H   0  0  0  0  0  0  0  0  0  0  0  0
   -0.9349   -0.0844   -2.3624 H   0  0  0  0  0  0  0  0  0  0  0  0
   -2.6766   -0.5271   -2.3895 H   0  0  0  0  0  0  0  0  0  0  0  0
   -1.4550   -1.5778   -3.1987 H   0  0  0  0  0  0  0  0  0  0  0  0
   -2.3484   -3.5594   -1.8008 H   0  0  0  0  0  0  0  0  0  0  0  0
   -3.5357   -2.4674   -1.0411 H   0  0  0  0  0  0  0  0  0  0  0  0
   -2.4479   -3.4454   -0.0150 H   0  0  0  0  0  0  0  0  0  0  0  0
   -0.2648   -3.2871    1.6361 C   0  0  0  0  0  0  0  0  0  0  0  0
   -0.1228   -4.1684    2.2930 H   0  0  0  0  0  0  0  0  0  0  0  0
   -0.3112   -3.6439    0.5920 H   0  0  0  0  0  0  0  0  0  0  0  0
   -1.2302   -2.8158    1.9028 H   0  0  0  0  0  0  0  0  0  0  0  0
    0.9346   -1.8918    3.3154 C   0  0  0  0  0  0  0  0  0  0  0  0
    0.9883   -2.7894    3.9625 H   0  0  0  0  0  0  0  0  0  0  0  0
    0.0060   -1.3460    3.5710 H   0  0  0  0  0  0  0  0  0  0  0  0
    1.8060   -1.2553    3.5450 H   0  0  0  0  0  0  0  0  0  0  0  0
  1  2  1  0  0  0  0
  1  7  1  0  0  0  0
  2  3  1  0  0  0  0
  2  4  1  0  0  0  0
  4  5  1  0  0  0  0
  4  6  1  0  0  0  0
  7  8  1  0  0  0  0
  4  7  1  0  0  0  0
  2  8  1  0  0  0  0
  8  9  1  0  0  0  0
  8 10  1  0  0  0  0
  7 11  1  0  0  0  0
  7 12  1  0  0  0  0
 13 14  1  0  0  0  0
 14 15  1  0  0  0  0
 15 16  1  0  0  0  0
 15 26  1  0  0  0  0
 15 27  1  0  0  0  0
 16 17  1  0  0  0  0
 16 18  1  0  0  0  0
 16 21  1  0  0  0  0
 13 17  1  0  0  0  0
 18 19  2  0  0  0  0
 18 22  1  0  0  0  0
 19 20  1  0  0  0  0
 19 25  1  0  0  0  0
 20 21  1  0  0  0  0
 20 30  1  0  0  0  0
 20 31  1  0  0  0  0
 21 28  1  0  0  0  0
 21 29  1  0  0  0  0
 22 23  2  0  0  0  0
 22 35  1  0  0  0  0
 23 24  1  0  0  0  0
 23 34  1  0  0  0  0
 24 25  2  0  0  0  0
 24 33  1  0  0  0  0
 25 32  1  0  0  0  0
 36 37  2  0  0  0  0
 36 41  1  0  0  0  0
 36 43  1  0  0  0  0
 37 38  1  0  0  0  0
 38 39  2  0  0  0  0
 39 40  1  0  0  0  0
 40 41  2  0  0  0  0
 40 42  1  0  0  0  0
 41 44  1  0  0  0  0
 13 38  1  0  0  0  0
 45 46  1  0  0  0  0
 45 47  1  0  0  0  0
 45 48  1  0  0  0  0
 46 52  1  0  0  0  0
 46 53  1  0  0  0  0
 46 54  1  0  0  0  0
 47 49  1  0  0  0  0
 47 50  1  0  0  0  0
 47 51  1  0  0  0  0
 37 45  1  0  0  0  0
 55 56  1  0  0  0  0
 55 57  1  0  0  0  0
 55 58  1  0  0  0  0
 56 62  1  0  0  0  0
 56 63  1  0  0  0  0
 56 64  1  0  0  0  0
 57 59  1  0  0  0  0
 57 60  1  0  0  0  0
 57 61  1  0  0  0  0
 39 55  1  0  0  0  0
 65 66  1  0  0  0  0
 65 67  1  0  0  0  0
 65 68  1  0  0  0  0
 14 65  1  0  0  0  0
 69 70  1  0  0  0  0
 69 71  1  0  0  0  0
 69 72  1  0  0  0  0
 14 69  1  0  0  0  0
  7 17  1  0  0  0  0
M  END
>  <DFT-ENERGY>
-2196.6514847

$$$$
