
  CDK     08142421553D

 78 82  0  0  0  0  0  0  0  0999 V2000
   -3.4347   -0.3977   -3.1109 C   0  0  0  0  0  0  0  0  0  0  0  0
   -3.2736    0.6604   -3.3810 H   0  0  0  0  0  0  0  0  0  0  0  0
   -4.3741   -0.7619   -3.5848 H   0  0  0  0  0  0  0  0  0  0  0  0
   -2.6098   -0.9971   -3.5378 H   0  0  0  0  0  0  0  0  0  0  0  0
   -3.5548   -0.5933   -1.6210 C   0  0  0  0  0  0  0  0  0  0  0  0
   -3.7285   -1.6330   -1.2874 H   0  0  0  0  0  0  0  0  0  0  0  0
   -4.0524    0.4027   -0.7420 C   0  0  0  0  0  0  0  0  0  0  0  0
   -4.1162    1.4264   -1.1513 H   0  0  0  0  0  0  0  0  0  0  0  0
   -4.9810    0.0333    0.3910 C   0  0  0  0  0  0  0  0  0  0  0  0
   -5.1057    0.8490    1.1277 H   0  0  0  0  0  0  0  0  0  0  0  0
   -5.9826   -0.1870   -0.0376 H   0  0  0  0  0  0  0  0  0  0  0  0
   -4.6217   -0.8787    0.9073 H   0  0  0  0  0  0  0  0  0  0  0  0
   -2.3450    1.0520    0.6894 C   0  0  0  0  0  0  0  0  0  0  0  0
   -2.7525    0.6626    1.6461 H   0  0  0  0  0  0  0  0  0  0  0  0
   -2.3539    2.1544    0.5490 H   0  0  0  0  0  0  0  0  0  0  0  0
   -1.6524   -0.0611   -0.5916 Ru  0  0  0  0  0  0  0  0  0  0  0  0
   -2.1299   -2.0084    0.7352 Cl  0  0  0  0  0  0  0  0  0  0  0  0
   -1.3321    1.8364   -2.0307 Cl  0  0  0  0  0  0  0  0  0  0  0  0
    1.2354    0.3233    0.2534 N   0  0  0  0  0  0  0  0  0  0  0  0
    2.6463   -0.1147   -0.1485 C   0  0  0  0  0  0  0  0  0  0  0  0
    2.3556   -0.7720   -1.5051 C   0  0  0  0  0  0  0  0  0  0  0  0
    0.9110   -1.2995   -1.4149 C   0  0  0  0  0  0  0  0  0  0  0  0
    0.2705   -0.2782   -0.4604 C   0  0  0  0  0  0  0  0  0  0  0  0
    0.2266   -1.4436   -2.7702 C   0  0  0  0  0  0  0  0  0  0  0  0
   -0.3497   -2.7197   -2.9257 C   0  0  0  0  0  0  0  0  0  0  0  0
   -0.2156   -3.5359   -1.6677 C   0  0  0  0  0  0  0  0  0  0  0  0
    0.8051   -2.7526   -0.8120 C   0  0  0  0  0  0  0  0  0  0  0  0
    0.2071   -0.5154   -3.8230 C   0  0  0  0  0  0  0  0  0  0  0  0
   -0.3724   -0.8851   -5.0459 C   0  0  0  0  0  0  0  0  0  0  0  0
   -0.9351   -2.1644   -5.2095 C   0  0  0  0  0  0  0  0  0  0  0  0
   -0.9375   -3.0831   -4.1475 C   0  0  0  0  0  0  0  0  0  0  0  0
    3.0785   -1.5726   -1.7504 H   0  0  0  0  0  0  0  0  0  0  0  0
    2.4125   -0.0021   -2.2996 H   0  0  0  0  0  0  0  0  0  0  0  0
    0.4981   -2.7380    0.2504 H   0  0  0  0  0  0  0  0  0  0  0  0
    1.8073   -3.2204   -0.8790 H   0  0  0  0  0  0  0  0  0  0  0  0
   -1.1899   -3.5881   -1.1371 H   0  0  0  0  0  0  0  0  0  0  0  0
    0.1131   -4.5752   -1.8694 H   0  0  0  0  0  0  0  0  0  0  0  0
   -1.3812   -4.0818   -4.2752 H   0  0  0  0  0  0  0  0  0  0  0  0
   -1.3825   -2.4440   -6.1746 H   0  0  0  0  0  0  0  0  0  0  0  0
   -0.3927   -0.1666   -5.8776 H   0  0  0  0  0  0  0  0  0  0  0  0
    0.6210    0.4928   -3.6882 H   0  0  0  0  0  0  0  0  0  0  0  0
    1.2487    3.3754    2.4499 C   0  0  0  0  0  0  0  0  0  0  0  0
    1.1955    2.5973    1.2771 C   0  0  0  0  0  0  0  0  0  0  0  0
    1.0641    1.1837    1.4142 C   0  0  0  0  0  0  0  0  0  0  0  0
    0.8775    0.5917    2.6994 C   0  0  0  0  0  0  0  0  0  0  0  0
    0.9444    1.4275    3.8309 C   0  0  0  0  0  0  0  0  0  0  0  0
    1.1554    2.8023    3.7187 C   0  0  0  0  0  0  0  0  0  0  0  0
    0.8169    0.9791    4.8263 H   0  0  0  0  0  0  0  0  0  0  0  0
    1.3598    4.4648    2.3552 H   0  0  0  0  0  0  0  0  0  0  0  0
    1.2187    3.4307    4.6191 H   0  0  0  0  0  0  0  0  0  0  0  0
    1.1964    3.3529   -0.0493 C   0  0  0  0  0  0  0  0  0  0  0  0
   -0.0607    4.2410   -0.1382 C   0  0  0  0  0  0  0  0  0  0  0  0
    2.4356    4.2494   -0.2362 C   0  0  0  0  0  0  0  0  0  0  0  0
    1.1342    2.6161   -0.8740 H   0  0  0  0  0  0  0  0  0  0  0  0
    2.4398    5.0800    0.4995 H   0  0  0  0  0  0  0  0  0  0  0  0
    2.4183    4.7102   -1.2447 H   0  0  0  0  0  0  0  0  0  0  0  0
    3.3911    3.7053   -0.1235 H   0  0  0  0  0  0  0  0  0  0  0  0
   -0.1150    4.7227   -1.1346 H   0  0  0  0  0  0  0  0  0  0  0  0
   -0.0363    5.0398    0.6320 H   0  0  0  0  0  0  0  0  0  0  0  0
   -0.9835    3.6482   -0.0155 H   0  0  0  0  0  0  0  0  0  0  0  0
    0.5231   -0.8723    2.9479 C   0  0  0  0  0  0  0  0  0  0  0  0
    1.5446   -1.6049    3.8374 C   0  0  0  0  0  0  0  0  0  0  0  0
   -0.8613   -0.9628    3.6190 C   0  0  0  0  0  0  0  0  0  0  0  0
    0.4463   -1.3889    1.9722 H   0  0  0  0  0  0  0  0  0  0  0  0
   -1.6303   -0.4320    3.0316 H   0  0  0  0  0  0  0  0  0  0  0  0
   -0.8343   -0.5351    4.6427 H   0  0  0  0  0  0  0  0  0  0  0  0
   -1.1799   -2.0208    3.6919 H   0  0  0  0  0  0  0  0  0  0  0  0
    1.2498   -2.6677    3.9519 H   0  0  0  0  0  0  0  0  0  0  0  0
    1.5743   -1.1625    4.8545 H   0  0  0  0  0  0  0  0  0  0  0  0
    2.5730   -1.5779    3.4337 H   0  0  0  0  0  0  0  0  0  0  0  0
    3.2216   -1.0893    0.8842 C   0  0  0  0  0  0  0  0  0  0  0  0
    4.2086   -1.4512    0.5345 H   0  0  0  0  0  0  0  0  0  0  0  0
    2.5683   -1.9638    1.0491 H   0  0  0  0  0  0  0  0  0  0  0  0
    3.3746   -0.5755    1.8519 H   0  0  0  0  0  0  0  0  0  0  0  0
    3.5968    1.0693   -0.2963 C   0  0  0  0  0  0  0  0  0  0  0  0
    4.5880    0.6869   -0.6121 H   0  0  0  0  0  0  0  0  0  0  0  0
    3.7301    1.6098    0.6604 H   0  0  0  0  0  0  0  0  0  0  0  0
    3.2433    1.7781   -1.0653 H   0  0  0  0  0  0  0  0  0  0  0  0
  1  2  1  0  0  0  0
  1  5  1  0  0  0  0
  3  1  1  0  0  0  0
  4  1  1  0  0  0  0
  5  6  1  0  0  0  0
  5 16  1  0  0  0  0
  5  7  1  0  0  0  0
  7  9  1  0  0  0  0
  7  8  1  0  0  0  0
  9 10  1  0  0  0  0
 11  9  1  0  0  0  0
 12  9  1  0  0  0  0
 13 14  1  0  0  0  0
 13 15  1  0  0  0  0
 13  7  1  0  0  0  0
 16 13  1  0  0  0  0
 16 17  1  0  0  0  0
 16 18  1  0  0  0  0
 19 20  1  0  0  0  0
 20 21  1  0  0  0  0
 21 22  1  0  0  0  0
 21 32  1  0  0  0  0
 21 33  1  0  0  0  0
 22 23  1  0  0  0  0
 22 24  1  0  0  0  0
 22 27  1  0  0  0  0
 19 23  1  0  0  0  0
 24 25  2  0  0  0  0
 24 28  1  0  0  0  0
 25 26  1  0  0  0  0
 25 31  1  0  0  0  0
 26 27  1  0  0  0  0
 26 36  1  0  0  0  0
 26 37  1  0  0  0  0
 27 34  1  0  0  0  0
 27 35  1  0  0  0  0
 28 29  2  0  0  0  0
 28 41  1  0  0  0  0
 29 30  1  0  0  0  0
 29 40  1  0  0  0  0
 30 31  2  0  0  0  0
 30 39  1  0  0  0  0
 31 38  1  0  0  0  0
 42 43  2  0  0  0  0
 42 47  1  0  0  0  0
 42 49  1  0  0  0  0
 43 44  1  0  0  0  0
 44 45  2  0  0  0  0
 45 46  1  0  0  0  0
 46 47  2  0  0  0  0
 46 48  1  0  0  0  0
 47 50  1  0  0  0  0
 19 44  1  0  0  0  0
 51 52  1  0  0  0  0
 51 53  1  0  0  0  0
 51 54  1  0  0  0  0
 52 58  1  0  0  0  0
 52 59  1  0  0  0  0
 52 60  1  0  0  0  0
 53 55  1  0  0  0  0
 53 56  1  0  0  0  0
 53 57  1  0  0  0  0
 43 51  1  0  0  0  0
 61 62  1  0  0  0  0
 61 63  1  0  0  0  0
 61 64  1  0  0  0  0
 62 68  1  0  0  0  0
 62 69  1  0  0  0  0
 62 70  1  0  0  0  0
 63 65  1  0  0  0  0
 63 66  1  0  0  0  0
 63 67  1  0  0  0  0
 45 61  1  0  0  0  0
 71 72  1  0  0  0  0
 71 73  1  0  0  0  0
 71 74  1  0  0  0  0
 20 71  1  0  0  0  0
 75 76  1  0  0  0  0
 75 77  1  0  0  0  0
 75 78  1  0  0  0  0
 20 75  1  0  0  0  0
 16 23  1  0  0  0  0
M  END
>  <DFT-ENERGY>
-2275.21416591

$$$$
