
  CDK     08132403513D

 61 64  0  0  0  0  0  0  0  0999 V2000
   -0.9527   -1.4474   -3.8980 C   0  0  0  0  0  0  0  0  0  0  0  0
    0.0431   -1.9207   -3.8362 H   0  0  0  0  0  0  0  0  0  0  0  0
   -1.4756   -1.7906   -4.8183 H   0  0  0  0  0  0  0  0  0  0  0  0
   -1.5573   -1.8168   -3.0421 H   0  0  0  0  0  0  0  0  0  0  0  0
   -0.8682    0.0621   -3.9220 C   0  0  0  0  0  0  0  0  0  0  0  0
   -1.8275    0.5915   -4.0719 H   0  0  0  0  0  0  0  0  0  0  0  0
    0.2865    0.7873   -4.3254 C   0  0  0  0  0  0  0  0  0  0  0  0
    1.2211    0.2126   -4.4474 H   0  0  0  0  0  0  0  0  0  0  0  0
    0.1279    2.0619   -5.1238 C   0  0  0  0  0  0  0  0  0  0  0  0
    1.0518    2.6698   -5.1515 H   0  0  0  0  0  0  0  0  0  0  0  0
   -0.1265    1.7922   -6.1715 H   0  0  0  0  0  0  0  0  0  0  0  0
   -0.7009    2.6754   -4.7187 H   0  0  0  0  0  0  0  0  0  0  0  0
    1.0878    1.9389   -2.4768 C   0  0  0  0  0  0  0  0  0  0  0  0
    0.7788    2.9781   -2.7206 H   0  0  0  0  0  0  0  0  0  0  0  0
    2.1734    1.6994   -2.5044 H   0  0  0  0  0  0  0  0  0  0  0  0
   -0.1343    0.6732   -1.9772 Ru  0  0  0  0  0  0  0  0  0  0  0  0
   -1.9515    2.2506   -2.0710 Cl  0  0  0  0  0  0  0  0  0  0  0  0
    1.6219   -0.9698   -1.9025 Cl  0  0  0  0  0  0  0  0  0  0  0  0
   -0.3431    0.5926    0.0144 C   0  0  0  0  0  0  0  0  0  0  0  0
    0.5235    1.0491    0.9564 N   0  0  0  0  0  0  0  0  0  0  0  0
   -0.0228    0.8838    2.3197 C   0  0  0  0  0  0  0  0  0  0  0  0
   -1.1689   -0.1120    2.0895 C   0  0  0  0  0  0  0  0  0  0  0  0
   -1.4013    0.0250    0.6452 N   0  0  0  0  0  0  0  0  0  0  0  0
    1.6625    1.8800    0.6939 C   0  0  0  0  0  0  0  0  0  0  0  0
    3.9043    3.4760    0.1178 C   0  0  0  0  0  0  0  0  0  0  0  0
    1.4700    3.2476    0.3907 C   0  0  0  0  0  0  0  0  0  0  0  0
    2.9519    1.3062    0.7721 C   0  0  0  0  0  0  0  0  0  0  0  0
    4.0548    2.1234    0.4751 C   0  0  0  0  0  0  0  0  0  0  0  0
    2.6090    4.0199    0.0950 C   0  0  0  0  0  0  0  0  0  0  0  0
    5.0636    1.6840    0.5206 H   0  0  0  0  0  0  0  0  0  0  0  0
    2.4738    5.0848   -0.1511 H   0  0  0  0  0  0  0  0  0  0  0  0
   -0.3847    1.8622    2.7048 H   0  0  0  0  0  0  0  0  0  0  0  0
    0.7537    0.5025    3.0092 H   0  0  0  0  0  0  0  0  0  0  0  0
   -0.8784   -1.1586    2.3303 H   0  0  0  0  0  0  0  0  0  0  0  0
   -2.0852    0.1380    2.6597 H   0  0  0  0  0  0  0  0  0  0  0  0
    3.1332   -0.1399    1.1450 C   0  0  0  0  0  0  0  0  0  0  0  0
    4.2046   -0.4146    1.1469 H   0  0  0  0  0  0  0  0  0  0  0  0
    2.6029   -0.7885    0.4177 H   0  0  0  0  0  0  0  0  0  0  0  0
    2.7268   -0.3588    2.1549 H   0  0  0  0  0  0  0  0  0  0  0  0
    0.0980    3.8664    0.3902 C   0  0  0  0  0  0  0  0  0  0  0  0
   -0.4106    3.7265    1.3669 H   0  0  0  0  0  0  0  0  0  0  0  0
   -0.5642    3.4164   -0.3805 H   0  0  0  0  0  0  0  0  0  0  0  0
    0.1605    4.9544    0.2001 H   0  0  0  0  0  0  0  0  0  0  0  0
    5.1081    4.3146   -0.2325 C   0  0  0  0  0  0  0  0  0  0  0  0
    5.5208    4.0235   -1.2217 H   0  0  0  0  0  0  0  0  0  0  0  0
    5.9238    4.1821    0.5067 H   0  0  0  0  0  0  0  0  0  0  0  0
    4.8564    5.3914   -0.2792 H   0  0  0  0  0  0  0  0  0  0  0  0
   -2.4549   -0.7136   -0.0309 C   0  0  0  0  0  0  0  0  0  0  0  0
   -2.4769   -0.3357   -1.0772 H   0  0  0  0  0  0  0  0  0  0  0  0
   -3.4302   -0.4235    0.4130 H   0  0  0  0  0  0  0  0  0  0  0  0
   -2.2881   -2.2213    0.0294 C   0  0  0  0  0  0  0  0  0  0  0  0
   -2.0067   -5.0261    0.1082 C   0  0  0  0  0  0  0  0  0  0  0  0
   -3.3726   -3.0377    0.3963 C   0  0  0  0  0  0  0  0  0  0  0  0
   -1.0539   -2.8205   -0.2927 C   0  0  0  0  0  0  0  0  0  0  0  0
   -0.9184   -4.2154   -0.2526 C   0  0  0  0  0  0  0  0  0  0  0  0
   -3.2364   -4.4339    0.4320 C   0  0  0  0  0  0  0  0  0  0  0  0
   -4.3369   -2.5728    0.6558 H   0  0  0  0  0  0  0  0  0  0  0  0
   -0.1913   -2.2012   -0.5900 H   0  0  0  0  0  0  0  0  0  0  0  0
    0.0491   -4.6693   -0.5125 H   0  0  0  0  0  0  0  0  0  0  0  0
   -4.0933   -5.0604    0.7198 H   0  0  0  0  0  0  0  0  0  0  0  0
   -1.8960   -6.1199    0.1382 H   0  0  0  0  0  0  0  0  0  0  0  0
  1  2  1  0  0  0  0
  1  5  1  0  0  0  0
  1  3  1  0  0  0  0
  1  4  1  0  0  0  0
  5  6  1  0  0  0  0
  5 16  1  0  0  0  0
  5  7  1  0  0  0  0
  7  9  1  0  0  0  0
  7  8  1  0  0  0  0
  9 10  1  0  0  0  0
  9 11  1  0  0  0  0
  9 12  1  0  0  0  0
 13 14  1  0  0  0  0
 13 15  1  0  0  0  0
  7 13  1  0  0  0  0
 13 16  1  0  0  0  0
 16 17  1  0  0  0  0
 16 18  1  0  0  0  0
 19 20  1  0  0  0  0
 19 23  1  0  0  0  0
 20 21  1  0  0  0  0
 20 24  1  0  0  0  0
 21 32  1  0  0  0  0
 21 33  1  0  0  0  0
 22 23  1  0  0  0  0
 21 22  1  0  0  0  0
 22 34  1  0  0  0  0
 22 35  1  0  0  0  0
 23 48  1  0  0  0  0
 24 27  2  0  0  0  0
 24 26  1  0  0  0  0
 25 28  2  0  0  0  0
 25 29  1  0  0  0  0
 25 44  1  0  0  0  0
 26 29  2  0  0  0  0
 26 40  1  0  0  0  0
 27 28  1  0  0  0  0
 27 36  1  0  0  0  0
 28 30  1  0  0  0  0
 29 31  1  0  0  0  0
 36 37  1  0  0  0  0
 36 38  1  0  0  0  0
 36 39  1  0  0  0  0
 40 41  1  0  0  0  0
 40 42  1  0  0  0  0
 40 43  1  0  0  0  0
 44 45  1  0  0  0  0
 44 46  1  0  0  0  0
 44 47  1  0  0  0  0
 48 49  1  0  0  0  0
 48 50  1  0  0  0  0
 48 51  1  0  0  0  0
 51 54  2  0  0  0  0
 51 53  1  0  0  0  0
 52 55  2  0  0  0  0
 52 56  1  0  0  0  0
 52 61  1  0  0  0  0
 53 56  2  0  0  0  0
 53 57  1  0  0  0  0
 54 55  1  0  0  0  0
 54 58  1  0  0  0  0
 55 59  1  0  0  0  0
 56 60  1  0  0  0  0
 16 19  1  0  0  0  0
M  END
>  <DFT-ENERGY>
-2056.87742974

$$$$
