
  CDK     08132408013D

 55 59  0  0  0  0  0  0  0  0999 V2000
    1.1050   -3.2070    1.3461 H   0  0  0  0  0  0  0  0  0  0  0  0
    2.2705   -3.3340    1.7195 C   0  0  0  0  0  0  0  0  0  0  0  0
    2.1036   -4.4166    1.8982 H   0  0  0  0  0  0  0  0  0  0  0  0
    2.9811   -2.8075    0.5208 C   0  0  0  0  0  0  0  0  0  0  0  0
    3.9661   -2.3375    0.6655 H   0  0  0  0  0  0  0  0  0  0  0  0
    2.8522   -3.3776   -0.4149 H   0  0  0  0  0  0  0  0  0  0  0  0
    1.4281   -1.5001    0.9876 Ru  0  0  0  0  0  0  0  0  0  0  0  0
    2.2149   -2.3059    2.7844 C   0  0  0  0  0  0  0  0  0  0  0  0
    3.1449   -1.7967    3.0708 H   0  0  0  0  0  0  0  0  0  0  0  0
    1.4767   -2.4577    3.5914 H   0  0  0  0  0  0  0  0  0  0  0  0
    3.2076    0.1124    1.4031 Cl  0  0  0  0  0  0  0  0  0  0  0  0
   -0.0083   -2.4995   -0.6330 Cl  0  0  0  0  0  0  0  0  0  0  0  0
    0.7159    0.2718    0.2925 C   0  0  0  0  0  0  0  0  0  0  0  0
   -0.2084    0.9151    1.0429 N   0  0  0  0  0  0  0  0  0  0  0  0
   -0.7506    2.0953    0.3397 C   0  0  0  0  0  0  0  0  0  0  0  0
    0.2616    2.2668   -0.8106 C   0  0  0  0  0  0  0  0  0  0  0  0
    0.9376    0.9590   -0.8372 N   0  0  0  0  0  0  0  0  0  0  0  0
   -0.7500    0.3149    2.2342 C   0  0  0  0  0  0  0  0  0  0  0  0
   -1.7116   -0.9365    4.5638 C   0  0  0  0  0  0  0  0  0  0  0  0
   -0.1475    0.6208    3.4797 C   0  0  0  0  0  0  0  0  0  0  0  0
   -1.8782   -0.5373    2.1427 C   0  0  0  0  0  0  0  0  0  0  0  0
   -2.3293   -1.1580    3.3210 C   0  0  0  0  0  0  0  0  0  0  0  0
   -0.6388   -0.0290    4.6245 C   0  0  0  0  0  0  0  0  0  0  0  0
   -3.1967   -1.8333    3.2600 H   0  0  0  0  0  0  0  0  0  0  0  0
   -0.1715    0.1930    5.5965 H   0  0  0  0  0  0  0  0  0  0  0  0
   -0.7954    2.9711    1.0147 H   0  0  0  0  0  0  0  0  0  0  0  0
   -1.7748    1.8821   -0.0337 H   0  0  0  0  0  0  0  0  0  0  0  0
   -0.2146    2.4822   -1.7860 H   0  0  0  0  0  0  0  0  0  0  0  0
    1.0103    3.0625   -0.5967 H   0  0  0  0  0  0  0  0  0  0  0  0
   -2.6024   -0.7507    0.8411 C   0  0  0  0  0  0  0  0  0  0  0  0
   -3.1383    0.1700    0.5257 H   0  0  0  0  0  0  0  0  0  0  0  0
   -3.3571   -1.5529    0.9420 H   0  0  0  0  0  0  0  0  0  0  0  0
   -1.9051   -1.0436    0.0311 H   0  0  0  0  0  0  0  0  0  0  0  0
    0.9706    1.6200    3.5798 C   0  0  0  0  0  0  0  0  0  0  0  0
    1.2225    1.8217    4.6378 H   0  0  0  0  0  0  0  0  0  0  0  0
    0.6952    2.5831    3.1023 H   0  0  0  0  0  0  0  0  0  0  0  0
    1.8798    1.2546    3.0560 H   0  0  0  0  0  0  0  0  0  0  0  0
   -2.1845   -1.6543    5.8028 C   0  0  0  0  0  0  0  0  0  0  0  0
   -3.2415   -1.9715    5.7134 H   0  0  0  0  0  0  0  0  0  0  0  0
   -2.0862   -1.0186    6.7047 H   0  0  0  0  0  0  0  0  0  0  0  0
   -1.5806   -2.5695    5.9831 H   0  0  0  0  0  0  0  0  0  0  0  0
    1.9947    0.6583   -1.7907 C   0  0  0  0  0  0  0  0  0  0  0  0
    2.3783   -0.3417   -1.5044 H   0  0  0  0  0  0  0  0  0  0  0  0
    2.8271    1.3842   -1.6619 H   0  0  0  0  0  0  0  0  0  0  0  0
    1.4802    0.6743   -3.2142 C   0  0  0  0  0  0  0  0  0  0  0  0
    0.5020    0.6927   -5.8576 C   0  0  0  0  0  0  0  0  0  0  0  0
    2.0322    1.5418   -4.1721 C   0  0  0  0  0  0  0  0  0  0  0  0
    0.4280   -0.1858   -3.5886 C   0  0  0  0  0  0  0  0  0  0  0  0
   -0.0564   -0.1745   -4.9031 C   0  0  0  0  0  0  0  0  0  0  0  0
    1.5490    1.5501   -5.4905 C   0  0  0  0  0  0  0  0  0  0  0  0
    2.8523    2.2168   -3.8812 H   0  0  0  0  0  0  0  0  0  0  0  0
    0.0026   -0.8694   -2.8373 H   0  0  0  0  0  0  0  0  0  0  0  0
   -0.8738   -0.8532   -5.1880 H   0  0  0  0  0  0  0  0  0  0  0  0
    1.9905    2.2324   -6.2316 H   0  0  0  0  0  0  0  0  0  0  0  0
    0.1203    0.6983   -6.8890 H   0  0  0  0  0  0  0  0  0  0  0  0
  1  2  1  0  0  0  0
  1  7  1  0  0  0  0
  2  3  1  0  0  0  0
  2  4  1  0  0  0  0
  4  5  1  0  0  0  0
  4  6  1  0  0  0  0
  7  8  1  0  0  0  0
  4  7  1  0  0  0  0
  2  8  1  0  0  0  0
  8  9  1  0  0  0  0
  8 10  1  0  0  0  0
  7 11  1  0  0  0  0
  7 12  1  0  0  0  0
 13 14  1  0  0  0  0
 13 17  1  0  0  0  0
 14 15  1  0  0  0  0
 14 18  1  0  0  0  0
 15 26  1  0  0  0  0
 15 27  1  0  0  0  0
 16 17  1  0  0  0  0
 15 16  1  0  0  0  0
 16 28  1  0  0  0  0
 16 29  1  0  0  0  0
 17 42  1  0  0  0  0
 18 21  2  0  0  0  0
 18 20  1  0  0  0  0
 19 22  2  0  0  0  0
 19 23  1  0  0  0  0
 19 38  1  0  0  0  0
 20 23  2  0  0  0  0
 20 34  1  0  0  0  0
 21 22  1  0  0  0  0
 21 30  1  0  0  0  0
 22 24  1  0  0  0  0
 23 25  1  0  0  0  0
 30 31  1  0  0  0  0
 30 32  1  0  0  0  0
 30 33  1  0  0  0  0
 34 35  1  0  0  0  0
 34 36  1  0  0  0  0
 34 37  1  0  0  0  0
 38 39  1  0  0  0  0
 38 40  1  0  0  0  0
 38 41  1  0  0  0  0
 42 43  1  0  0  0  0
 42 44  1  0  0  0  0
 42 45  1  0  0  0  0
 45 48  2  0  0  0  0
 45 47  1  0  0  0  0
 46 49  2  0  0  0  0
 46 50  1  0  0  0  0
 46 55  1  0  0  0  0
 47 50  2  0  0  0  0
 47 51  1  0  0  0  0
 48 49  1  0  0  0  0
 48 52  1  0  0  0  0
 49 53  1  0  0  0  0
 50 54  1  0  0  0  0
  7 13  1  0  0  0  0
M  END
>  <DFT-ENERGY>
-1978.32990341

$$$$
