SIMesBenzyl-5_A2
  CDK     08122416283D

 69 73  0  0  0  0  0  0  0  0999 V2000
    0.5290    0.4528   -0.6494 Ru  0  0  0  0  0  0  0  0  0  0  0  0
    2.3068    0.4528   -2.0386 O   0  0  0  0  0  0  0  0  0  0  0  0
    1.7392    1.3861    0.3547 C   0  0  0  0  0  0  0  0  0  0  0  0
    1.5064    1.6790    1.3774 H   0  0  0  0  0  0  0  0  0  0  0  0
    2.5423   -0.3224   -3.2644 C   0  0  0  0  0  0  0  0  0  0  0  0
    2.9550    0.3774   -4.0220 H   0  0  0  0  0  0  0  0  0  0  0  0
    1.1219   -0.7629   -3.5893 C   0  0  0  0  0  0  0  0  0  0  0  0
    1.0607   -1.2629   -4.5598 H   0  0  0  0  0  0  0  0  0  0  0  0
    0.7384   -1.4624   -2.8198 H   0  0  0  0  0  0  0  0  0  0  0  0
    0.4410    0.1120   -3.6061 H   0  0  0  0  0  0  0  0  0  0  0  0
    3.4780   -1.4696   -2.9290 C   0  0  0  0  0  0  0  0  0  0  0  0
    3.4728   -2.2421   -3.7045 H   0  0  0  0  0  0  0  0  0  0  0  0
    4.5121   -1.1427   -2.7781 H   0  0  0  0  0  0  0  0  0  0  0  0
    3.1578   -1.9532   -1.9844 H   0  0  0  0  0  0  0  0  0  0  0  0
    3.2990    1.2512   -1.5336 C   0  0  0  0  0  0  0  0  0  0  0  0
    4.4681    1.5999   -2.1866 C   0  0  0  0  0  0  0  0  0  0  0  0
    4.6872    1.2497   -3.1927 H   0  0  0  0  0  0  0  0  0  0  0  0
    5.3693    2.4310   -1.5291 C   0  0  0  0  0  0  0  0  0  0  0  0
    6.2919    2.7188   -2.0381 H   0  0  0  0  0  0  0  0  0  0  0  0
    5.1193    2.9026   -0.2438 C   0  0  0  0  0  0  0  0  0  0  0  0
    5.8440    3.5474    0.2505 H   0  0  0  0  0  0  0  0  0  0  0  0
    3.9496    2.5423    0.3978 C   0  0  0  0  0  0  0  0  0  0  0  0
    3.7564    2.8969    1.4091 H   0  0  0  0  0  0  0  0  0  0  0  0
    3.0141    1.7269   -0.2416 C   0  0  0  0  0  0  0  0  0  0  0  0
    1.1269   -1.7327   -0.0908 Cl  0  0  0  0  0  0  0  0  0  0  0  0
   -0.2877    2.1454   -1.9979 Cl  0  0  0  0  0  0  0  0  0  0  0  0
   -1.0792    0.4280    0.4825 C   0  0  0  0  0  0  0  0  0  0  0  0
   -1.3632    0.8150    1.7810 N   0  0  0  0  0  0  0  0  0  0  0  0
   -2.7816    0.5239    2.1998 C   0  0  0  0  0  0  0  0  0  0  0  0
   -3.4080   -0.0899    0.9308 C   0  0  0  0  0  0  0  0  0  0  0  0
   -2.2691   -0.0808   -0.0443 N   0  0  0  0  0  0  0  0  0  0  0  0
   -0.5072    1.4511    2.7465 C   0  0  0  0  0  0  0  0  0  0  0  0
    0.9619    2.7175    4.7644 C   0  0  0  0  0  0  0  0  0  0  0  0
   -0.4046    2.8636    2.7541 C   0  0  0  0  0  0  0  0  0  0  0  0
    0.1906    0.6674    3.6960 C   0  0  0  0  0  0  0  0  0  0  0  0
    0.9078    1.3171    4.7079 C   0  0  0  0  0  0  0  0  0  0  0  0
    0.3216    3.4822    3.7784 C   0  0  0  0  0  0  0  0  0  0  0  0
    1.4343    0.7264    5.4546 H   0  0  0  0  0  0  0  0  0  0  0  0
    0.3918    4.5675    3.8046 H   0  0  0  0  0  0  0  0  0  0  0  0
   -3.2859    1.4582    2.5163 H   0  0  0  0  0  0  0  0  0  0  0  0
   -2.7892   -0.1756    3.0592 H   0  0  0  0  0  0  0  0  0  0  0  0
   -3.7691   -1.1268    1.0931 H   0  0  0  0  0  0  0  0  0  0  0  0
   -4.2551    0.5092    0.5418 H   0  0  0  0  0  0  0  0  0  0  0  0
    0.1935   -0.8197    3.5949 C   0  0  0  0  0  0  0  0  0  0  0  0
    0.8893   -1.2974    4.2956 H   0  0  0  0  0  0  0  0  0  0  0  0
    0.4992   -1.1415    2.5756 H   0  0  0  0  0  0  0  0  0  0  0  0
   -0.8010   -1.2492    3.7723 H   0  0  0  0  0  0  0  0  0  0  0  0
   -1.0224    3.6685    1.6610 C   0  0  0  0  0  0  0  0  0  0  0  0
   -2.1194    3.6163    1.6809 H   0  0  0  0  0  0  0  0  0  0  0  0
   -0.7089    3.2880    0.6637 H   0  0  0  0  0  0  0  0  0  0  0  0
   -0.7424    4.7286    1.6953 H   0  0  0  0  0  0  0  0  0  0  0  0
    1.7058    3.3870    5.8735 C   0  0  0  0  0  0  0  0  0  0  0  0
    1.1231    3.3553    6.8067 H   0  0  0  0  0  0  0  0  0  0  0  0
    1.9218    4.4431    5.6644 H   0  0  0  0  0  0  0  0  0  0  0  0
    2.6682    2.8966    6.0774 H   0  0  0  0  0  0  0  0  0  0  0  0
   -2.4941   -0.5841   -1.4167 C   0  0  0  0  0  0  0  0  0  0  0  0
   -1.5369   -0.5583   -2.0067 H   0  0  0  0  0  0  0  0  0  0  0  0
   -3.1809    0.1224   -1.9454 H   0  0  0  0  0  0  0  0  0  0  0  0
   -3.0509   -1.9915   -1.4105 C   0  0  0  0  0  0  0  0  0  0  0  0
   -4.0668   -4.6005   -1.4271 C   0  0  0  0  0  0  0  0  0  0  0  0
   -4.3463   -2.2371   -1.8862 C   0  0  0  0  0  0  0  0  0  0  0  0
   -2.2655   -3.0542   -0.9410 C   0  0  0  0  0  0  0  0  0  0  0  0
   -2.7750   -4.3548   -0.9493 C   0  0  0  0  0  0  0  0  0  0  0  0
   -4.8501   -3.5413   -1.8957 C   0  0  0  0  0  0  0  0  0  0  0  0
   -4.9617   -1.4182   -2.2540 H   0  0  0  0  0  0  0  0  0  0  0  0
   -1.2531   -2.8598   -0.5682 H   0  0  0  0  0  0  0  0  0  0  0  0
   -2.1611   -5.1780   -0.5851 H   0  0  0  0  0  0  0  0  0  0  0  0
   -5.8544   -3.7315   -2.2703 H   0  0  0  0  0  0  0  0  0  0  0  0
   -4.4603   -5.6153   -1.4360 H   0  0  0  0  0  0  0  0  0  0  0  0
  1  2  1  0  0  0  0
  1  3  2  0  0  0  0
  3  4  1  0  0  0  0
  2  5  1  0  0  0  0
  5  6  1  0  0  0  0
  5  7  1  0  0  0  0
  7  8  1  0  0  0  0
  7  9  1  0  0  0  0
  7 10  1  0  0  0  0
  5 11  1  0  0  0  0
 11 12  1  0  0  0  0
 11 13  1  0  0  0  0
 11 14  1  0  0  0  0
  2 15  1  0  0  0  0
 15 24  1  0  0  0  0
 15 16  2  0  0  0  0
 16 17  1  0  0  0  0
 16 18  1  0  0  0  0
 18 19  1  0  0  0  0
 18 20  2  0  0  0  0
 20 21  1  0  0  0  0
 20 22  1  0  0  0  0
 22 24  2  0  0  0  0
 22 23  1  0  0  0  0
  3 24  1  0  0  0  0
  1 25  1  0  0  0  0
  1 26  1  0  0  0  0
 27 28  1  0  0  0  0
 27 31  1  0  0  0  0
 28 29  1  0  0  0  0
 28 32  1  0  0  0  0
 29 40  1  0  0  0  0
 29 41  1  0  0  0  0
 30 31  1  0  0  0  0
 29 30  1  0  0  0  0
 30 42  1  0  0  0  0
 30 43  1  0  0  0  0
 31 56  1  0  0  0  0
 32 35  2  0  0  0  0
 32 34  1  0  0  0  0
 33 36  2  0  0  0  0
 33 37  1  0  0  0  0
 33 52  1  0  0  0  0
 34 37  2  0  0  0  0
 34 48  1  0  0  0  0
 35 36  1  0  0  0  0
 35 44  1  0  0  0  0
 36 38  1  0  0  0  0
 37 39  1  0  0  0  0
 44 45  1  0  0  0  0
 44 46  1  0  0  0  0
 44 47  1  0  0  0  0
 48 49  1  0  0  0  0
 48 50  1  0  0  0  0
 48 51  1  0  0  0  0
 52 53  1  0  0  0  0
 52 54  1  0  0  0  0
 52 55  1  0  0  0  0
 56 57  1  0  0  0  0
 56 58  1  0  0  0  0
 56 59  1  0  0  0  0
 59 62  2  0  0  0  0
 59 61  1  0  0  0  0
 60 63  2  0  0  0  0
 60 64  1  0  0  0  0
 60 69  1  0  0  0  0
 61 64  2  0  0  0  0
 61 65  1  0  0  0  0
 62 63  1  0  0  0  0
 62 66  1  0  0  0  0
 63 67  1  0  0  0  0
 64 68  1  0  0  0  0
  1 27  1  0  0  0  0
M  END
> <FrozenCore-PM6_ENERGY>
81.905

> <RMSD_CONF_CG-CS>
0.538088

> <RMSD_CONF_GO-CS>
0.000000

> <UID>


> <DESCRIPTOR_DEFINITION_1>
desc1=( echo "1 * ( e( $hartree_to_kcalmol * ( ( $freeEnergyZ - $freeEnergyD ) - ( $freeEnergyX + 2*$G_Ethene - $freeEnergyD - 2*$G_Propene ) - $DDG_reference_HGII ) / $kT ) ) " | bc -l )

> <DESCRIPTOR_DEFINITION_2>
desc1=( echo "1 * ( e( $hartree_to_kcalmol * ( ( $freeEnergyZ - $freeEnergyD ) - ( $freeEnergyX + 2*$G_Ethene - $freeEnergyD - 2*$G_Propene ) - $DDG_reference_HGII ) / $kT ) ) " | bc -l )

> <DESCRIPTOR_DEFINITION_3>
desc1=( echo "1 * ( e( $hartree_to_kcalmol * ( ( $freeEnergyZ - $freeEnergyD ) - ( $freeEnergyX + 2*$G_Ethene - $freeEnergyD - 2*$G_Propene ) - $DDG_reference_HGII ) / $kT ) ) " | bc -l )

> <WEIGHT_DEFINITION_1>
w1=$( echo "1 / ( 1 + e( $hartree_to_kcalmol * ( ( ( $freeEnergyX + 2*$G_Ethene - $freeEnergyD - 2*$G_Propene ) ) - ( $DG_referenceProductionBarrier + $magnitude4 ) ) / $kT ) )" | bc -l )

> <WEIGHT_DEFINITION_2>
w1=$( echo "1 / ( 1 + e( $hartree_to_kcalmol * ( ( ( $freeEnergyX + 2*$G_Ethene - $freeEnergyD - 2*$G_Propene ) ) - ( $DG_referenceProductionBarrier + $magnitude4 ) ) / $kT ) )" | bc -l )

> <WEIGHT_DEFINITION_3>
w1=$( echo "1 / ( 1 + e( $hartree_to_kcalmol * ( ( ( $freeEnergyX + 2*$G_Ethene - $freeEnergyD - 2*$G_Propene ) ) - ( $DG_referenceProductionBarrier + $magnitude4 ) ) / $kT ) )" | bc -l )

> <WEIGHT_DEFINITION_4>
w1=$( echo "1 / ( 1 + e( $hartree_to_kcalmol * ( ( ( $freeEnergyX + 2*$G_Ethene - $freeEnergyD - 2*$G_Propene ) ) - ( $DG_referenceProductionBarrier + $magnitude4 ) ) / $kT ) )" | bc -l )

> <CALCULATION_OF_OVERALL_FITNESS>
fitness=$( echo "( $desc1 + $desc2 + $desc3 ) * ( $w1 * $w2 * $w3 * $w4 )" | bc -l )

> <freeEnergyA>
-2323.60646062

> <freeEnergyF>
-2323.592418

> <freeEnergyE>
-2323.60646062

> <freeEnergyC>
-1978.3455473

> <freeEnergyL>
-845.741165001

> <freeEnergyX>
-2056.87742981

> <freeEnergyZ>
-1978.32990334

> <freeEnergyD>
-1978.3686252

> <G_Propene>
-117.738020895

> <G_Ethene>
-78.4716324751

> <G_HoveydaProd>
-502.204109499

> <G_SIMes>
-924.27249048

> <G_HG_RuCl2_SIMes>
-2402.13728523

> <DG_referenceProductionBarrier>
0.01468968

> <DG_referencePrecursorStabilityHII>
-0.0052201621

> <DG_referencePrecursorStabilityHI>
0.0117775312

> <DDG_referencePrecursorStability>
.0169976933

> <DG_referenceSynt>
0.0226072217

> <hartree_to_kcalmol>
627.49467516

> <boltzmann_constant>
0.0000000000000000000000138066

> <avogadro_number>
602214000000000000000000

> <jmol_to_kcalmol>
0.00023901

> <temp>
313.15

> <kT>
.6223089948281258706000000000

> <magnitude1>
1.43290809

> <magnitude2>
2.86581618

> <magnitude3>
4.29872427

> <magnitude4>
5.73163236

> <DFT_IDENTIFIER>
1723537459066

> <DFT_MACHINE>
158.39.114.73

> <XTB_IDENTIFIER>
NREC

> <XTB_MACHINE>
NREC

> <DESCRIPTOR_1>
.00052927286686079866

> <DESCRIPTOR_2>
9.255314411079125832

> <DESCRIPTOR_3>
0.0000000001

> <WEIGHT_1>
.99944461298873007985

> <WEIGHT_2>
.99999925426561451244

> <WEIGHT_3>
.99999999999240259853

> <WEIGHT_4>
.99992912365209793432

> <FITNESS>
9.25004055448492375504

$$$$
