
  CDK     07302418383D

 49 52  0  0  0  0  0  0  0  0999 V2000
    0.1891   -1.7644    3.1968 C   0  0  0  0  0  0  0  0  0  0  0  0
    1.2372   -2.0711    3.0290 H   0  0  0  0  0  0  0  0  0  0  0  0
   -0.1023   -2.0057    4.2438 H   0  0  0  0  0  0  0  0  0  0  0  0
   -0.4558   -2.3664    2.5306 H   0  0  0  0  0  0  0  0  0  0  0  0
   -0.0005   -0.2811    2.9812 C   0  0  0  0  0  0  0  0  0  0  0  0
   -1.0326    0.1029    3.0842 H   0  0  0  0  0  0  0  0  0  0  0  0
    1.0208    0.6517    3.2902 C   0  0  0  0  0  0  0  0  0  0  0  0
    2.0300    0.2307    3.4469 H   0  0  0  0  0  0  0  0  0  0  0  0
    0.6905    1.9652    3.9599 C   0  0  0  0  0  0  0  0  0  0  0  0
    1.5316    2.6833    3.9350 H   0  0  0  0  0  0  0  0  0  0  0  0
    0.4561    1.7599    5.0270 H   0  0  0  0  0  0  0  0  0  0  0  0
   -0.2019    2.4253    3.4915 H   0  0  0  0  0  0  0  0  0  0  0  0
    1.7406    1.6863    1.3415 C   0  0  0  0  0  0  0  0  0  0  0  0
    1.4093    2.7319    1.5234 H   0  0  0  0  0  0  0  0  0  0  0  0
    2.8321    1.4795    1.4050 H   0  0  0  0  0  0  0  0  0  0  0  0
    0.5559    0.3484    0.9239 Ru  0  0  0  0  0  0  0  0  0  0  0  0
   -1.3137    1.8626    1.0962 Cl  0  0  0  0  0  0  0  0  0  0  0  0
    2.3879   -1.1865    0.8006 Cl  0  0  0  0  0  0  0  0  0  0  0  0
    0.3151    0.3966   -1.0510 C   0  0  0  0  0  0  0  0  0  0  0  0
    1.2541    0.7843   -1.9667 N   0  0  0  0  0  0  0  0  0  0  0  0
    0.6838    0.9625   -3.3155 C   0  0  0  0  0  0  0  0  0  0  0  0
   -0.5821    0.1144   -3.2223 C   0  0  0  0  0  0  0  0  0  0  0  0
   -0.8239    0.1023   -1.7609 N   0  0  0  0  0  0  0  0  0  0  0  0
    0.4620    2.0376   -3.4921 H   0  0  0  0  0  0  0  0  0  0  0  0
    1.3915    0.6023   -4.0843 H   0  0  0  0  0  0  0  0  0  0  0  0
   -0.4144   -0.9267   -3.5727 H   0  0  0  0  0  0  0  0  0  0  0  0
   -1.4377    0.5506   -3.7624 H   0  0  0  0  0  0  0  0  0  0  0  0
   -2.0457   -0.3263   -1.2144 C   0  0  0  0  0  0  0  0  0  0  0  0
   -4.5120   -1.1928   -0.1010 C   0  0  0  0  0  0  0  0  0  0  0  0
   -2.1143   -1.2312   -0.1415 C   0  0  0  0  0  0  0  0  0  0  0  0
   -3.2868    0.1362   -1.6993 C   0  0  0  0  0  0  0  0  0  0  0  0
   -4.5056   -0.2920   -1.1748 C   0  0  0  0  0  0  0  0  0  0  0  0
   -3.3040   -1.6645    0.4327 C   0  0  0  0  0  0  0  0  0  0  0  0
   -5.4319    0.1143   -1.6005 H   0  0  0  0  0  0  0  0  0  0  0  0
   -3.2690   -2.3606    1.2798 H   0  0  0  0  0  0  0  0  0  0  0  0
    2.4918    1.3869   -1.6372 C   0  0  0  0  0  0  0  0  0  0  0  0
    4.9405    2.5974   -0.9742 C   0  0  0  0  0  0  0  0  0  0  0  0
    3.6937    0.6602   -1.6896 C   0  0  0  0  0  0  0  0  0  0  0  0
    2.5629    2.7495   -1.2923 C   0  0  0  0  0  0  0  0  0  0  0  0
    3.7672    3.3676   -0.9503 C   0  0  0  0  0  0  0  0  0  0  0  0
    4.9159    1.2457   -1.3456 C   0  0  0  0  0  0  0  0  0  0  0  0
    3.7689    4.4296   -0.6740 H   0  0  0  0  0  0  0  0  0  0  0  0
    5.8260    0.6338   -1.3760 H   0  0  0  0  0  0  0  0  0  0  0  0
   -5.4662   -1.5220    0.3308 H   0  0  0  0  0  0  0  0  0  0  0  0
    5.8971    3.0643   -0.7017 H   0  0  0  0  0  0  0  0  0  0  0  0
   -3.2915    1.0493   -2.7045 F   0  0  0  0  0  0  0  0  0  0  0  0
   -0.9256   -1.6785    0.3705 F   0  0  0  0  0  0  0  0  0  0  0  0
    1.4116    3.4586   -1.2869 F   0  0  0  0  0  0  0  0  0  0  0  0
    3.6531   -0.6166   -2.1012 F   0  0  0  0  0  0  0  0  0  0  0  0
  1  2  1  0  0  0  0
  1  5  1  0  0  0  0
  1  3  1  0  0  0  0
  1  4  1  0  0  0  0
  5  6  1  0  0  0  0
  5 16  1  0  0  0  0
  5  7  1  0  0  0  0
  7  9  1  0  0  0  0
  7  8  1  0  0  0  0
  9 10  1  0  0  0  0
  9 11  1  0  0  0  0
  9 12  1  0  0  0  0
 13 14  1  0  0  0  0
 13 15  1  0  0  0  0
  7 13  1  0  0  0  0
 13 16  1  0  0  0  0
 16 17  1  0  0  0  0
 16 18  1  0  0  0  0
 19 20  1  0  0  0  0
 19 23  1  0  0  0  0
 20 21  1  0  0  0  0
 21 24  1  0  0  0  0
 21 25  1  0  0  0  0
 21 22  1  0  0  0  0
 22 26  1  0  0  0  0
 22 27  1  0  0  0  0
 22 23  1  0  0  0  0
 28 31  2  0  0  0  0
 31 32  1  0  0  0  0
 29 32  2  0  0  0  0
 29 33  1  0  0  0  0
 30 33  2  0  0  0  0
 28 30  1  0  0  0  0
 32 34  1  0  0  0  0
 33 35  1  0  0  0  0
 23 28  1  0  0  0  0
 36 39  2  0  0  0  0
 39 40  1  0  0  0  0
 37 40  2  0  0  0  0
 37 41  1  0  0  0  0
 38 41  2  0  0  0  0
 36 38  1  0  0  0  0
 40 42  1  0  0  0  0
 41 43  1  0  0  0  0
 20 36  1  0  0  0  0
 29 44  1  0  0  0  0
 37 45  1  0  0  0  0
 31 46  1  0  0  0  0
 30 47  1  0  0  0  0
 39 48  1  0  0  0  0
 38 49  1  0  0  0  0
 16 19  1  0  0  0  0
M  END
>  <DFT-ENERGY>
-2296.43459775

$$$$
