DFP_A2
  CDK     07302413063D

 57 61  0  0  0  0  0  0  0  0999 V2000
    0.1719   -0.1351   -0.3160 Ru  0  0  0  0  0  0  0  0  0  0  0  0
    1.9497   -0.1351   -1.7052 O   0  0  0  0  0  0  0  0  0  0  0  0
    1.3821    0.7982    0.6881 C   0  0  0  0  0  0  0  0  0  0  0  0
    1.1493    1.0911    1.7108 H   0  0  0  0  0  0  0  0  0  0  0  0
    2.1852   -0.9103   -2.9310 C   0  0  0  0  0  0  0  0  0  0  0  0
    2.5965   -0.2110   -3.6895 H   0  0  0  0  0  0  0  0  0  0  0  0
    0.7617   -1.3475   -3.2480 C   0  0  0  0  0  0  0  0  0  0  0  0
    0.6912   -1.8393   -4.2212 H   0  0  0  0  0  0  0  0  0  0  0  0
    0.3787   -2.0490   -2.4794 H   0  0  0  0  0  0  0  0  0  0  0  0
    0.0785   -0.4722   -3.2523 H   0  0  0  0  0  0  0  0  0  0  0  0
    3.1198   -2.0580   -2.5959 C   0  0  0  0  0  0  0  0  0  0  0  0
    3.1137   -2.8307   -3.3710 H   0  0  0  0  0  0  0  0  0  0  0  0
    4.1542   -1.7321   -2.4449 H   0  0  0  0  0  0  0  0  0  0  0  0
    2.7994   -2.5411   -1.6506 H   0  0  0  0  0  0  0  0  0  0  0  0
    2.9419    0.6633   -1.2002 C   0  0  0  0  0  0  0  0  0  0  0  0
    4.1110    1.0122   -1.8532 C   0  0  0  0  0  0  0  0  0  0  0  0
    4.3299    0.6622   -2.8594 H   0  0  0  0  0  0  0  0  0  0  0  0
    5.0121    1.8433   -1.1958 C   0  0  0  0  0  0  0  0  0  0  0  0
    5.9345    2.1312   -1.7048 H   0  0  0  0  0  0  0  0  0  0  0  0
    4.7622    2.3148    0.0896 C   0  0  0  0  0  0  0  0  0  0  0  0
    5.4872    2.9594    0.5837 H   0  0  0  0  0  0  0  0  0  0  0  0
    3.5925    1.9545    0.7312 C   0  0  0  0  0  0  0  0  0  0  0  0
    3.4001    2.3076    1.7432 H   0  0  0  0  0  0  0  0  0  0  0  0
    2.6570    1.1390    0.0918 C   0  0  0  0  0  0  0  0  0  0  0  0
    0.7737   -2.3351    0.2463 Cl  0  0  0  0  0  0  0  0  0  0  0  0
   -0.6524    1.5734   -1.6772 Cl  0  0  0  0  0  0  0  0  0  0  0  0
   -1.3824   -0.1279    0.8525 C   0  0  0  0  0  0  0  0  0  0  0  0
   -1.8093    0.4462    2.0519 N   0  0  0  0  0  0  0  0  0  0  0  0
   -3.2133    0.0594    2.4482 C   0  0  0  0  0  0  0  0  0  0  0  0
   -3.6735   -0.8687    1.3028 C   0  0  0  0  0  0  0  0  0  0  0  0
   -2.4689   -0.9046    0.4118 N   0  0  0  0  0  0  0  0  0  0  0  0
   -3.2050   -0.4568    3.4292 H   0  0  0  0  0  0  0  0  0  0  0  0
   -3.8469    0.9651    2.5352 H   0  0  0  0  0  0  0  0  0  0  0  0
   -4.5491   -0.4642    0.7555 H   0  0  0  0  0  0  0  0  0  0  0  0
   -3.9268   -1.8875    1.6593 H   0  0  0  0  0  0  0  0  0  0  0  0
   -2.4642   -1.6851   -0.7848 C   0  0  0  0  0  0  0  0  0  0  0  0
   -2.5069   -3.2436   -3.1509 C   0  0  0  0  0  0  0  0  0  0  0  0
   -2.8342   -1.1344   -2.0344 C   0  0  0  0  0  0  0  0  0  0  0  0
   -2.1155   -3.0571   -0.7804 C   0  0  0  0  0  0  0  0  0  0  0  0
   -2.1321   -3.8362   -1.9421 C   0  0  0  0  0  0  0  0  0  0  0  0
   -2.8609   -1.8921   -3.2090 C   0  0  0  0  0  0  0  0  0  0  0  0
   -1.8468   -4.8886   -1.9037 H   0  0  0  0  0  0  0  0  0  0  0  0
   -3.1499   -1.4335   -4.1555 H   0  0  0  0  0  0  0  0  0  0  0  0
   -1.1016    1.3292    2.9209 C   0  0  0  0  0  0  0  0  0  0  0  0
    0.2440    3.0879    4.6961 C   0  0  0  0  0  0  0  0  0  0  0  0
   -1.1396    2.7327    2.7570 C   0  0  0  0  0  0  0  0  0  0  0  0
   -0.3725    0.8562    4.0363 C   0  0  0  0  0  0  0  0  0  0  0  0
    0.2987    1.7082    4.9165 C   0  0  0  0  0  0  0  0  0  0  0  0
   -0.4760    3.6109    3.6189 C   0  0  0  0  0  0  0  0  0  0  0  0
    0.8580    1.3037    5.7618 H   0  0  0  0  0  0  0  0  0  0  0  0
   -0.5191    4.6886    3.4511 H   0  0  0  0  0  0  0  0  0  0  0  0
   -2.5247   -3.8443   -4.0626 H   0  0  0  0  0  0  0  0  0  0  0  0
    0.7674    3.7642    5.3756 H   0  0  0  0  0  0  0  0  0  0  0  0
   -1.7976   -3.6410    0.3674 F   0  0  0  0  0  0  0  0  0  0  0  0
   -3.1828    0.1450   -2.0975 F   0  0  0  0  0  0  0  0  0  0  0  0
   -0.3253   -0.4513    4.2696 F   0  0  0  0  0  0  0  0  0  0  0  0
   -1.8413    3.2471    1.7539 F   0  0  0  0  0  0  0  0  0  0  0  0
  2  1  1  0  0  0  0
  3  1  2  0  0  0  0
  4  3  1  0  0  0  0
  5  2  1  0  0  0  0
  6  5  1  0  0  0  0
  7  5  1  0  0  0  0
  8  7  1  0  0  0  0
  9  7  1  0  0  0  0
 10  7  1  0  0  0  0
 11  5  1  0  0  0  0
 12 11  1  0  0  0  0
 13 11  1  0  0  0  0
 14 11  1  0  0  0  0
 15  2  1  0  0  0  0
 15 24  1  0  0  0  0
 16 15  2  0  0  0  0
 17 16  1  0  0  0  0
 18 16  1  0  0  0  0
 19 18  1  0  0  0  0
 20 18  2  0  0  0  0
 21 20  1  0  0  0  0
 22 20  1  0  0  0  0
 22 24  2  0  0  0  0
 23 22  1  0  0  0  0
 24  3  1  0  0  0  0
  1 25  1  0  0  0  0
  1 26  1  0  0  0  0
 27 28  1  0  0  0  0
 27 31  1  0  0  0  0
 28 29  1  0  0  0  0
 29 32  1  0  0  0  0
 29 33  1  0  0  0  0
 29 30  1  0  0  0  0
 30 34  1  0  0  0  0
 30 35  1  0  0  0  0
 30 31  1  0  0  0  0
 36 39  2  0  0  0  0
 39 40  1  0  0  0  0
 37 40  2  0  0  0  0
 37 41  1  0  0  0  0
 38 41  2  0  0  0  0
 36 38  1  0  0  0  0
 40 42  1  0  0  0  0
 41 43  1  0  0  0  0
 31 36  1  0  0  0  0
 44 47  2  0  0  0  0
 47 48  1  0  0  0  0
 45 48  2  0  0  0  0
 45 49  1  0  0  0  0
 46 49  2  0  0  0  0
 44 46  1  0  0  0  0
 48 50  1  0  0  0  0
 49 51  1  0  0  0  0
 28 44  1  0  0  0  0
 37 52  1  0  0  0  0
 45 53  1  0  0  0  0
 39 54  1  0  0  0  0
 38 55  1  0  0  0  0
 47 56  1  0  0  0  0
 46 57  1  0  0  0  0
  1 27  1  0  0  0  0
M  END
> <FrozenCore-PM6_ENERGY>
-486.628

> <RMSD_CONF_CG-CS>
0.367404

> <RMSD_CONF_GO-CS>
0.000000

> <UID>


> <DESCRIPTOR_DEFINITION_1>
desc1=( echo "1 * ( e( $hartree_to_kcalmol * ( ( $freeEnergyZ - $freeEnergyD ) - ( $freeEnergyX + 2*$G_Ethene - $freeEnergyD - 2*$G_Propene ) - $DDG_reference_HGII ) / $kT ) ) " | bc -l )

> <DESCRIPTOR_DEFINITION_2>
desc1=( echo "1 * ( e( $hartree_to_kcalmol * ( ( $freeEnergyZ - $freeEnergyD ) - ( $freeEnergyX + 2*$G_Ethene - $freeEnergyD - 2*$G_Propene ) - $DDG_reference_HGII ) / $kT ) ) " | bc -l )

> <DESCRIPTOR_DEFINITION_3>
desc1=( echo "1 * ( e( $hartree_to_kcalmol * ( ( $freeEnergyZ - $freeEnergyD ) - ( $freeEnergyX + 2*$G_Ethene - $freeEnergyD - 2*$G_Propene ) - $DDG_reference_HGII ) / $kT ) ) " | bc -l )

> <WEIGHT_DEFINITION_1>
w1=$( echo "1 / ( 1 + e( $hartree_to_kcalmol * ( ( ( $freeEnergyX + 2*$G_Ethene - $freeEnergyD - 2*$G_Propene ) ) - ( $DG_referenceProductionBarrier + $magnitude4 ) ) / $kT ) )" | bc -l )

> <WEIGHT_DEFINITION_2>
w1=$( echo "1 / ( 1 + e( $hartree_to_kcalmol * ( ( ( $freeEnergyX + 2*$G_Ethene - $freeEnergyD - 2*$G_Propene ) ) - ( $DG_referenceProductionBarrier + $magnitude4 ) ) / $kT ) )" | bc -l )

> <WEIGHT_DEFINITION_3>
w1=$( echo "1 / ( 1 + e( $hartree_to_kcalmol * ( ( ( $freeEnergyX + 2*$G_Ethene - $freeEnergyD - 2*$G_Propene ) ) - ( $DG_referenceProductionBarrier + $magnitude4 ) ) / $kT ) )" | bc -l )

> <WEIGHT_DEFINITION_4>
w1=$( echo "1 / ( 1 + e( $hartree_to_kcalmol * ( ( ( $freeEnergyX + 2*$G_Ethene - $freeEnergyD - 2*$G_Propene ) ) - ( $DG_referenceProductionBarrier + $magnitude4 ) ) / $kT ) )" | bc -l )

> <CALCULATION_OF_OVERALL_FITNESS>
fitness=$( echo "( $desc1 + $desc2 + $desc3 ) * ( $w1 * $w2 * $w3 * $w4 )" | bc -l )

> <freeEnergyA>
-2563.16334776

> <freeEnergyF>
-2563.13950282

> <freeEnergyE>
-2563.16334776

> <freeEnergyC>
-2217.9004757

> <freeEnergyL>
-1085.30453707

> <freeEnergyX>
-2296.43459749

> <freeEnergyZ>
-2217.89029223

> <freeEnergyD>
-2217.92425959

> <G_Propene>
-117.738020895

> <G_Ethene>
-78.4716324751

> <G_HoveydaProd>
-502.204109499

> <G_SIMes>
-924.27249048

> <G_HG_RuCl2_SIMes>
-2402.13728523

> <DG_referenceProductionBarrier>
0.01468968

> <DG_referencePrecursorStabilityHII>
-0.0052201621

> <DG_referencePrecursorStabilityHI>
0.0117775312

> <DDG_referencePrecursorStability>
.0169976933

> <DG_referenceSynt>
0.0226072217

> <hartree_to_kcalmol>
627.49467516

> <boltzmann_constant>
0.0000000000000000000000138066

> <avogadro_number>
602214000000000000000000

> <jmol_to_kcalmol>
0.00023901

> <temp>
313.15

> <kT>
.6223089948281258706000000000

> <magnitude1>
1.43290809

> <magnitude2>
2.86581618

> <magnitude3>
4.29872427

> <magnitude4>
5.73163236

> <DFT_IDENTIFIER>
1722376947953

> <DFT_MACHINE>
158.36.42.38

> <XTB_IDENTIFIER>
NREC

> <XTB_MACHINE>
NREC

> <DESCRIPTOR_1>
.00002056214735643239

> <DESCRIPTOR_2>
7.234022288506982232

> <DESCRIPTOR_3>
0.0000000001

> <WEIGHT_1>
.99988160393684064229

> <WEIGHT_2>
.99999462546696404381

> <WEIGHT_3>
.99999999474584762518

> <WEIGHT_4>
.99999999638619756244

> <FITNESS>
7.23314742941776521244

$$$$
