
  CDK     07302422543D

 43 46  0  0  0  0  0  0  0  0999 V2000
    1.1189   -0.6618   -0.1232 Ru  0  0  0  0  0  0  0  0  0  0  0  0
    2.1562   -1.4227   -1.5989 C   0  0  0  0  0  0  0  0  0  0  0  0
    1.6858   -2.2893   -2.0969 H   0  0  0  0  0  0  0  0  0  0  0  0
    3.0272   -1.8271   -0.3413 C   0  0  0  0  0  0  0  0  0  0  0  0
    3.0620   -2.9316   -0.3319 H   0  0  0  0  0  0  0  0  0  0  0  0
    2.4815   -1.3927    1.0786 C   0  0  0  0  0  0  0  0  0  0  0  0
    3.1138   -0.6325    1.5714 H   0  0  0  0  0  0  0  0  0  0  0  0
    2.1591   -2.2464    1.7010 H   0  0  0  0  0  0  0  0  0  0  0  0
    4.0074   -1.3329   -0.4675 H   0  0  0  0  0  0  0  0  0  0  0  0
    2.6556   -0.6870   -2.2545 H   0  0  0  0  0  0  0  0  0  0  0  0
   -0.0869   -2.7140    0.0863 Cl  0  0  0  0  0  0  0  0  0  0  0  0
    2.3614    1.3621   -0.3367 Cl  0  0  0  0  0  0  0  0  0  0  0  0
   -0.5702    0.3398    0.0622 C   0  0  0  0  0  0  0  0  0  0  0  0
   -1.2727    0.5029    1.2085 N   0  0  0  0  0  0  0  0  0  0  0  0
   -2.5705    1.1721    0.9692 C   0  0  0  0  0  0  0  0  0  0  0  0
   -2.3913    1.7298   -0.4557 C   0  0  0  0  0  0  0  0  0  0  0  0
   -1.2243    0.9642   -0.9463 N   0  0  0  0  0  0  0  0  0  0  0  0
   -3.3879    0.4255    1.0311 H   0  0  0  0  0  0  0  0  0  0  0  0
   -2.7423    1.9645    1.7218 H   0  0  0  0  0  0  0  0  0  0  0  0
   -2.1506    2.8124   -0.4592 H   0  0  0  0  0  0  0  0  0  0  0  0
   -3.2718    1.5497   -1.1005 H   0  0  0  0  0  0  0  0  0  0  0  0
   -0.6282    1.1631   -2.2179 C   0  0  0  0  0  0  0  0  0  0  0  0
    0.6485    1.5276   -4.6978 C   0  0  0  0  0  0  0  0  0  0  0  0
   -0.0383    2.3933   -2.5619 C   0  0  0  0  0  0  0  0  0  0  0  0
   -0.5664    0.1222   -3.1630 C   0  0  0  0  0  0  0  0  0  0  0  0
    0.0750    0.2849   -4.3941 C   0  0  0  0  0  0  0  0  0  0  0  0
    0.5931    2.5944   -3.7885 C   0  0  0  0  0  0  0  0  0  0  0  0
    0.1090   -0.5605   -5.0928 H   0  0  0  0  0  0  0  0  0  0  0  0
    1.0511    3.5683   -4.0011 H   0  0  0  0  0  0  0  0  0  0  0  0
   -0.9574   -0.2090    2.3933 C   0  0  0  0  0  0  0  0  0  0  0  0
   -0.2681   -1.6792    4.6917 C   0  0  0  0  0  0  0  0  0  0  0  0
    0.1414    0.1611    3.1913 C   0  0  0  0  0  0  0  0  0  0  0  0
   -1.7026   -1.3340    2.7918 C   0  0  0  0  0  0  0  0  0  0  0  0
   -1.3805   -2.0699    3.9315 C   0  0  0  0  0  0  0  0  0  0  0  0
    0.5034   -0.5667    4.3281 C   0  0  0  0  0  0  0  0  0  0  0  0
   -1.9861   -2.9474    4.1897 H   0  0  0  0  0  0  0  0  0  0  0  0
    1.3768   -0.2459    4.9099 H   0  0  0  0  0  0  0  0  0  0  0  0
    1.1549    1.6671   -5.6628 H   0  0  0  0  0  0  0  0  0  0  0  0
    0.0058   -2.2583    5.5843 H   0  0  0  0  0  0  0  0  0  0  0  0
   -1.1227   -1.0641   -2.8504 F   0  0  0  0  0  0  0  0  0  0  0  0
   -0.0971    3.3956   -1.6596 F   0  0  0  0  0  0  0  0  0  0  0  0
   -2.7582   -1.6953    2.0316 F   0  0  0  0  0  0  0  0  0  0  0  0
    0.8695    1.2335    2.8241 F   0  0  0  0  0  0  0  0  0  0  0  0
  2  4  1  0  0  0  0
  2  1  1  0  0  0  0
  2  3  1  0  0  0  0
  4  6  1  0  0  0  0
  4  5  1  0  0  0  0
  6  1  1  0  0  0  0
  6  8  1  0  0  0  0
  7  6  1  0  0  0  0
  9  4  1  0  0  0  0
 10  2  1  0  0  0  0
  1 11  1  0  0  0  0
  1 12  1  0  0  0  0
 13 14  1  0  0  0  0
 13 17  1  0  0  0  0
 14 15  1  0  0  0  0
 15 18  1  0  0  0  0
 15 19  1  0  0  0  0
 15 16  1  0  0  0  0
 16 20  1  0  0  0  0
 16 21  1  0  0  0  0
 16 17  1  0  0  0  0
 22 25  2  0  0  0  0
 25 26  1  0  0  0  0
 23 26  2  0  0  0  0
 23 27  1  0  0  0  0
 24 27  2  0  0  0  0
 22 24  1  0  0  0  0
 26 28  1  0  0  0  0
 27 29  1  0  0  0  0
 17 22  1  0  0  0  0
 30 33  2  0  0  0  0
 33 34  1  0  0  0  0
 31 34  2  0  0  0  0
 31 35  1  0  0  0  0
 32 35  2  0  0  0  0
 30 32  1  0  0  0  0
 34 36  1  0  0  0  0
 35 37  1  0  0  0  0
 14 30  1  0  0  0  0
 23 38  1  0  0  0  0
 31 39  1  0  0  0  0
 25 40  1  0  0  0  0
 24 41  1  0  0  0  0
 33 42  1  0  0  0  0
 32 43  1  0  0  0  0
  1 13  1  0  0  0  0
M  END
>  <DFT-ENERGY>
-2217.92425965

$$$$
