
  CDK     08172404513D

 61 64  0  0  0  0  0  0  0  0999 V2000
    1.3042   -0.7954   -0.1470 Ru  0  0  0  0  0  0  0  0  0  0  0  0
    2.9467   -0.6514   -1.2122 C   0  0  0  0  0  0  0  0  0  0  0  0
    2.8350   -0.8499   -2.2926 H   0  0  0  0  0  0  0  0  0  0  0  0
    3.2185   -1.9566   -0.3607 C   0  0  0  0  0  0  0  0  0  0  0  0
    3.3345   -2.7806   -1.0888 H   0  0  0  0  0  0  0  0  0  0  0  0
    2.0869   -2.4113    0.6467 C   0  0  0  0  0  0  0  0  0  0  0  0
    2.3854   -2.3269    1.7064 H   0  0  0  0  0  0  0  0  0  0  0  0
    1.6031   -3.3603    0.3536 H   0  0  0  0  0  0  0  0  0  0  0  0
    4.1124   -1.7449    0.2547 H   0  0  0  0  0  0  0  0  0  0  0  0
    3.6106    0.1886   -0.9398 H   0  0  0  0  0  0  0  0  0  0  0  0
    0.3540   -2.2224   -1.9942 Br  0  0  0  0  0  0  0  0  0  0  0  0
    2.4298    0.5235    1.6819 Br  0  0  0  0  0  0  0  0  0  0  0  0
   -1.2886    0.0984    1.0524 N   0  0  0  0  0  0  0  0  0  0  0  0
   -0.8506    1.1690   -0.8274 N   0  0  0  0  0  0  0  0  0  0  0  0
   -0.3999    0.2327    0.0402 C   0  0  0  0  0  0  0  0  0  0  0  0
   -2.5084    0.8977    0.8155 C   0  0  0  0  0  0  0  0  0  0  0  0
   -2.0728    1.8316   -0.3269 C   0  0  0  0  0  0  0  0  0  0  0  0
   -2.8001    1.4426    1.7328 H   0  0  0  0  0  0  0  0  0  0  0  0
   -3.3473    0.2297    0.5224 H   0  0  0  0  0  0  0  0  0  0  0  0
   -2.8278    1.9126   -1.1311 H   0  0  0  0  0  0  0  0  0  0  0  0
   -1.8290    2.8559    0.0297 H   0  0  0  0  0  0  0  0  0  0  0  0
   -1.1258   -0.8001    2.1608 C   0  0  0  0  0  0  0  0  0  0  0  0
   -0.6911   -0.2707    3.3995 C   0  0  0  0  0  0  0  0  0  0  0  0
   -0.4790   -1.1658    4.4582 C   0  0  0  0  0  0  0  0  0  0  0  0
   -0.7040   -2.5484    4.3201 C   0  0  0  0  0  0  0  0  0  0  0  0
   -1.1966   -3.0247    3.0946 C   0  0  0  0  0  0  0  0  0  0  0  0
   -1.4308   -2.1705    2.0005 C   0  0  0  0  0  0  0  0  0  0  0  0
   -0.1215   -0.7685    5.4208 H   0  0  0  0  0  0  0  0  0  0  0  0
   -1.4211   -4.0969    2.9823 H   0  0  0  0  0  0  0  0  0  0  0  0
   -0.4731    1.2075    3.5801 C   0  0  0  0  0  0  0  0  0  0  0  0
   -1.4317    1.7682    3.5369 H   0  0  0  0  0  0  0  0  0  0  0  0
    0.1992    1.6032    2.7935 H   0  0  0  0  0  0  0  0  0  0  0  0
   -0.0095    1.4181    4.5617 H   0  0  0  0  0  0  0  0  0  0  0  0
   -0.4208   -3.4886    5.4644 C   0  0  0  0  0  0  0  0  0  0  0  0
    0.6718   -3.6556    5.5757 H   0  0  0  0  0  0  0  0  0  0  0  0
   -0.8945   -4.4768    5.3087 H   0  0  0  0  0  0  0  0  0  0  0  0
   -0.7830   -3.0776    6.4280 H   0  0  0  0  0  0  0  0  0  0  0  0
   -2.0087   -2.7111    0.7207 C   0  0  0  0  0  0  0  0  0  0  0  0
   -1.2464   -2.7858   -0.0850 H   0  0  0  0  0  0  0  0  0  0  0  0
   -2.8118   -2.0571    0.3247 H   0  0  0  0  0  0  0  0  0  0  0  0
   -2.4373   -3.7179    0.8828 H   0  0  0  0  0  0  0  0  0  0  0  0
   -0.1596    1.5667   -2.0218 C   0  0  0  0  0  0  0  0  0  0  0  0
    0.9273    2.4655   -1.9334 C   0  0  0  0  0  0  0  0  0  0  0  0
    1.6162    2.7773   -3.1208 C   0  0  0  0  0  0  0  0  0  0  0  0
    1.2363    2.2473   -4.3641 C   0  0  0  0  0  0  0  0  0  0  0  0
    0.1051    1.4113   -4.4168 C   0  0  0  0  0  0  0  0  0  0  0  0
   -0.6152    1.0644   -3.2644 C   0  0  0  0  0  0  0  0  0  0  0  0
    2.4711    3.4693   -3.0666 H   0  0  0  0  0  0  0  0  0  0  0  0
   -0.2275    1.0102   -5.3868 H   0  0  0  0  0  0  0  0  0  0  0  0
    1.3334    3.0954   -0.6287 C   0  0  0  0  0  0  0  0  0  0  0  0
    0.4539    3.4326   -0.0440 H   0  0  0  0  0  0  0  0  0  0  0  0
    1.9825    3.9733   -0.8068 H   0  0  0  0  0  0  0  0  0  0  0  0
    1.8847    2.3854    0.0255 H   0  0  0  0  0  0  0  0  0  0  0  0
    2.0152    2.5617   -5.6164 C   0  0  0  0  0  0  0  0  0  0  0  0
    1.3426    2.7955   -6.4660 H   0  0  0  0  0  0  0  0  0  0  0  0
    2.6331    1.6918   -5.9247 H   0  0  0  0  0  0  0  0  0  0  0  0
    2.6983    3.4200   -5.4685 H   0  0  0  0  0  0  0  0  0  0  0  0
   -1.8396    0.1933   -3.3503 C   0  0  0  0  0  0  0  0  0  0  0  0
   -1.7592   -0.6648   -2.6542 H   0  0  0  0  0  0  0  0  0  0  0  0
   -1.9635   -0.2082   -4.3733 H   0  0  0  0  0  0  0  0  0  0  0  0
   -2.7616    0.7619   -3.1018 H   0  0  0  0  0  0  0  0  0  0  0  0
  2  4  1  0  0  0  0
  2  1  1  0  0  0  0
  2  3  1  0  0  0  0
  4  6  1  0  0  0  0
  4  5  1  0  0  0  0
  6  1  1  0  0  0  0
  6  8  1  0  0  0  0
  7  6  1  0  0  0  0
  9  4  1  0  0  0  0
 10  2  1  0  0  0  0
  1 11  1  0  0  0  0
  1 12  1  0  0  0  0
 13 15  1  0  0  0  0
 14 15  1  0  0  0  0
 13 16  1  0  0  0  0
 16 17  1  0  0  0  0
 14 17  1  0  0  0  0
 16 18  1  0  0  0  0
 16 19  1  0  0  0  0
 17 20  1  0  0  0  0
 17 21  1  0  0  0  0
 22 23  2  0  0  0  0
 23 24  1  0  0  0  0
 24 25  2  0  0  0  0
 25 26  1  0  0  0  0
 26 27  2  0  0  0  0
 22 27  1  0  0  0  0
 24 28  1  0  0  0  0
 26 29  1  0  0  0  0
 13 22  1  0  0  0  0
 30 31  1  0  0  0  0
 30 32  1  0  0  0  0
 30 33  1  0  0  0  0
 23 30  1  0  0  0  0
 34 35  1  0  0  0  0
 34 36  1  0  0  0  0
 34 37  1  0  0  0  0
 25 34  1  0  0  0  0
 38 39  1  0  0  0  0
 38 40  1  0  0  0  0
 38 41  1  0  0  0  0
 27 38  1  0  0  0  0
 42 43  2  0  0  0  0
 43 44  1  0  0  0  0
 44 45  2  0  0  0  0
 45 46  1  0  0  0  0
 46 47  2  0  0  0  0
 42 47  1  0  0  0  0
 44 48  1  0  0  0  0
 46 49  1  0  0  0  0
 14 42  1  0  0  0  0
 50 51  1  0  0  0  0
 50 52  1  0  0  0  0
 50 53  1  0  0  0  0
 43 50  1  0  0  0  0
 54 55  1  0  0  0  0
 54 56  1  0  0  0  0
 54 57  1  0  0  0  0
 45 54  1  0  0  0  0
 58 59  1  0  0  0  0
 58 60  1  0  0  0  0
 58 61  1  0  0  0  0
 47 58  1  0  0  0  0
  1 15  1  0  0  0  0
M  END
>  <DFT-ENERGY>
-6284.36877629

$$$$
