SIMesBr-3_A1
  CDK     08162410253D

 75 79  0  0  0  0  0  0  0  0999 V2000
   -0.7151    0.6608   -0.5812 Ru  0  0  0  0  0  0  0  0  0  0  0  0
   -2.4929    2.0500   -0.5812 O   0  0  0  0  0  0  0  0  0  0  0  0
   -1.9253   -0.3433    0.3521 C   0  0  0  0  0  0  0  0  0  0  0  0
   -1.6925   -1.3660    0.6450 H   0  0  0  0  0  0  0  0  0  0  0  0
   -2.7284    3.2758   -1.3564 C   0  0  0  0  0  0  0  0  0  0  0  0
   -3.1055    4.0423   -0.6464 H   0  0  0  0  0  0  0  0  0  0  0  0
   -1.3112    3.5636   -1.8316 C   0  0  0  0  0  0  0  0  0  0  0  0
   -1.2376    4.5260   -2.3449 H   0  0  0  0  0  0  0  0  0  0  0  0
   -0.9490    2.7787   -2.5258 H   0  0  0  0  0  0  0  0  0  0  0  0
   -0.6033    3.5759   -0.9767 H   0  0  0  0  0  0  0  0  0  0  0  0
   -3.7011    2.9627   -2.4784 C   0  0  0  0  0  0  0  0  0  0  0  0
   -3.6964    3.7419   -3.2481 H   0  0  0  0  0  0  0  0  0  0  0  0
   -4.7309    2.8386   -2.1273 H   0  0  0  0  0  0  0  0  0  0  0  0
   -3.4205    2.0143   -2.9755 H   0  0  0  0  0  0  0  0  0  0  0  0
   -3.4851    1.5450    0.2172 C   0  0  0  0  0  0  0  0  0  0  0  0
   -4.6542    2.1980    0.5659 C   0  0  0  0  0  0  0  0  0  0  0  0
   -4.8728    3.2051    0.2172 H   0  0  0  0  0  0  0  0  0  0  0  0
   -5.5554    1.5405    1.3970 C   0  0  0  0  0  0  0  0  0  0  0  0
   -6.4786    2.0497    1.6849 H   0  0  0  0  0  0  0  0  0  0  0  0
   -5.3054    0.2552    1.8686 C   0  0  0  0  0  0  0  0  0  0  0  0
   -6.0303   -0.2393    2.5135 H   0  0  0  0  0  0  0  0  0  0  0  0
   -4.1357   -0.3864    1.5083 C   0  0  0  0  0  0  0  0  0  0  0  0
   -3.9425   -1.3977    1.8629 H   0  0  0  0  0  0  0  0  0  0  0  0
   -3.2002    0.2530    0.6929 C   0  0  0  0  0  0  0  0  0  0  0  0
   -1.4440   -0.2070   -2.8149 Br  0  0  0  0  0  0  0  0  0  0  0  0
    0.1510    1.9575    1.3555 Br  0  0  0  0  0  0  0  0  0  0  0  0
    1.1851   -1.7592   -0.1538 N   0  0  0  0  0  0  0  0  0  0  0  0
    2.1102    0.0355   -1.0925 N   0  0  0  0  0  0  0  0  0  0  0  0
    0.9169   -0.4665   -0.5743 C   0  0  0  0  0  0  0  0  0  0  0  0
    2.6023   -2.1990   -0.4267 C   0  0  0  0  0  0  0  0  0  0  0  0
    3.2378   -0.9622   -1.0861 C   0  0  0  0  0  0  0  0  0  0  0  0
    2.6039   -3.0863   -1.0910 H   0  0  0  0  0  0  0  0  0  0  0  0
    3.1012   -2.4842    0.5208 H   0  0  0  0  0  0  0  0  0  0  0  0
    4.1001   -0.5650   -0.5143 H   0  0  0  0  0  0  0  0  0  0  0  0
    3.5792   -1.1559   -2.1229 H   0  0  0  0  0  0  0  0  0  0  0  0
    0.3351   -2.7208    0.5010 C   0  0  0  0  0  0  0  0  0  0  0  0
   -0.3148   -3.7236   -0.2564 C   0  0  0  0  0  0  0  0  0  0  0  0
   -1.0506   -4.7101    0.4148 C   0  0  0  0  0  0  0  0  0  0  0  0
   -1.1506   -4.7071    1.8115 C   0  0  0  0  0  0  0  0  0  0  0  0
   -0.5205   -3.6954    2.5525 C   0  0  0  0  0  0  0  0  0  0  0  0
    0.2219   -2.6965    1.9144 C   0  0  0  0  0  0  0  0  0  0  0  0
   -1.5511   -5.4857   -0.1616 H   0  0  0  0  0  0  0  0  0  0  0  0
   -0.6095   -3.6878    3.6370 H   0  0  0  0  0  0  0  0  0  0  0  0
   -0.2374   -3.7342   -1.7444 C   0  0  0  0  0  0  0  0  0  0  0  0
    0.7844   -3.9133   -2.1028 H   0  0  0  0  0  0  0  0  0  0  0  0
   -0.5553   -2.7567   -2.1621 H   0  0  0  0  0  0  0  0  0  0  0  0
   -0.8849   -4.4922   -2.2031 H   0  0  0  0  0  0  0  0  0  0  0  0
   -1.9222   -5.7710    2.5214 C   0  0  0  0  0  0  0  0  0  0  0  0
   -2.6826   -5.3400    3.1887 H   0  0  0  0  0  0  0  0  0  0  0  0
   -1.2595   -6.3899    3.1445 H   0  0  0  0  0  0  0  0  0  0  0  0
   -2.4452   -6.4499    1.8350 H   0  0  0  0  0  0  0  0  0  0  0  0
    0.8594   -1.6097    2.7103 C   0  0  0  0  0  0  0  0  0  0  0  0
    0.5110   -0.6126    2.3672 H   0  0  0  0  0  0  0  0  0  0  0  0
    1.9524   -1.6084    2.6052 H   0  0  0  0  0  0  0  0  0  0  0  0
    0.6326   -1.6687    3.7820 H   0  0  0  0  0  0  0  0  0  0  0  0
    2.3963    1.3512   -1.6108 C   0  0  0  0  0  0  0  0  0  0  0  0
    2.1714    1.6384   -2.9799 C   0  0  0  0  0  0  0  0  0  0  0  0
    2.4902    2.9117   -3.4711 C   0  0  0  0  0  0  0  0  0  0  0  0
    3.0531    3.8868   -2.6367 C   0  0  0  0  0  0  0  0  0  0  0  0
    3.3190    3.5786   -1.2974 C   0  0  0  0  0  0  0  0  0  0  0  0
    3.0104    2.3155   -0.7719 C   0  0  0  0  0  0  0  0  0  0  0  0
    2.3029    3.1408   -4.5181 H   0  0  0  0  0  0  0  0  0  0  0  0
    3.7711    4.3267   -0.6490 H   0  0  0  0  0  0  0  0  0  0  0  0
    1.6361    0.6263   -3.9353 C   0  0  0  0  0  0  0  0  0  0  0  0
    1.3734   -0.3323   -3.4627 H   0  0  0  0  0  0  0  0  0  0  0  0
    2.3552    0.4130   -4.7370 H   0  0  0  0  0  0  0  0  0  0  0  0
    0.7083    0.9829   -4.4158 H   0  0  0  0  0  0  0  0  0  0  0  0
    3.3815    5.2361   -3.1881 C   0  0  0  0  0  0  0  0  0  0  0  0
    4.1536    5.1683   -3.9683 H   0  0  0  0  0  0  0  0  0  0  0  0
    3.7549    5.9298   -2.4233 H   0  0  0  0  0  0  0  0  0  0  0  0
    2.4993    5.7066   -3.6457 H   0  0  0  0  0  0  0  0  0  0  0  0
    3.3861    2.0306    0.6445 C   0  0  0  0  0  0  0  0  0  0  0  0
    2.9424    1.1043    1.0381 H   0  0  0  0  0  0  0  0  0  0  0  0
    3.0344    2.8321    1.3167 H   0  0  0  0  0  0  0  0  0  0  0  0
    4.4755    1.9608    0.7588 H   0  0  0  0  0  0  0  0  0  0  0  0
  1  2  1  0  0  0  0
  1  3  2  0  0  0  0
  3  4  1  0  0  0  0
  2  5  1  0  0  0  0
  5  6  1  0  0  0  0
  5  7  1  0  0  0  0
  7  8  1  0  0  0  0
  7  9  1  0  0  0  0
  7 10  1  0  0  0  0
  5 11  1  0  0  0  0
 11 12  1  0  0  0  0
 11 13  1  0  0  0  0
 11 14  1  0  0  0  0
  2 15  1  0  0  0  0
 15 24  1  0  0  0  0
 15 16  2  0  0  0  0
 16 17  1  0  0  0  0
 16 18  1  0  0  0  0
 18 19  1  0  0  0  0
 18 20  2  0  0  0  0
 20 21  1  0  0  0  0
 20 22  1  0  0  0  0
 22 24  2  0  0  0  0
 22 23  1  0  0  0  0
  3 24  1  0  0  0  0
  1 25  1  0  0  0  0
  1 26  1  0  0  0  0
 27 29  1  0  0  0  0
 28 29  1  0  0  0  0
 27 30  1  0  0  0  0
 30 31  1  0  0  0  0
 28 31  1  0  0  0  0
 30 32  1  0  0  0  0
 30 33  1  0  0  0  0
 31 34  1  0  0  0  0
 31 35  1  0  0  0  0
  1 29  1  0  0  0  0
 36 37  2  0  0  0  0
 37 38  1  0  0  0  0
 38 39  2  0  0  0  0
 39 40  1  0  0  0  0
 40 41  2  0  0  0  0
 36 41  1  0  0  0  0
 38 42  1  0  0  0  0
 40 43  1  0  0  0  0
 27 36  1  0  0  0  0
 44 45  1  0  0  0  0
 44 46  1  0  0  0  0
 44 47  1  0  0  0  0
 37 44  1  0  0  0  0
 48 49  1  0  0  0  0
 48 50  1  0  0  0  0
 48 51  1  0  0  0  0
 39 48  1  0  0  0  0
 52 53  1  0  0  0  0
 52 54  1  0  0  0  0
 52 55  1  0  0  0  0
 41 52  1  0  0  0  0
 56 57  2  0  0  0  0
 57 58  1  0  0  0  0
 58 59  2  0  0  0  0
 59 60  1  0  0  0  0
 60 61  2  0  0  0  0
 56 61  1  0  0  0  0
 58 62  1  0  0  0  0
 60 63  1  0  0  0  0
 28 56  1  0  0  0  0
 64 65  1  0  0  0  0
 64 66  1  0  0  0  0
 64 67  1  0  0  0  0
 57 64  1  0  0  0  0
 68 69  1  0  0  0  0
 68 70  1  0  0  0  0
 68 71  1  0  0  0  0
 59 68  1  0  0  0  0
 72 73  1  0  0  0  0
 72 74  1  0  0  0  0
 72 75  1  0  0  0  0
 61 72  1  0  0  0  0
M  END
> <FrozenCore-PM6_ENERGY>
59.006

> <RMSD_CONF_CG-CS>
3.116277

> <RMSD_CONF_GO-CS>
0.000000

> <UID>


> <DESCRIPTOR_DEFINITION_1>
desc1=( echo "1 * ( e( $hartree_to_kcalmol * ( ( $freeEnergyZ - $freeEnergyD ) - ( $freeEnergyX + 2*$G_Ethene - $freeEnergyD - 2*$G_Propene ) - $DDG_reference_HGII ) / $kT ) ) " | bc -l )

> <DESCRIPTOR_DEFINITION_2>
desc1=( echo "1 * ( e( $hartree_to_kcalmol * ( ( $freeEnergyZ - $freeEnergyD ) - ( $freeEnergyX + 2*$G_Ethene - $freeEnergyD - 2*$G_Propene ) - $DDG_reference_HGII ) / $kT ) ) " | bc -l )

> <DESCRIPTOR_DEFINITION_3>
desc1=( echo "1 * ( e( $hartree_to_kcalmol * ( ( $freeEnergyZ - $freeEnergyD ) - ( $freeEnergyX + 2*$G_Ethene - $freeEnergyD - 2*$G_Propene ) - $DDG_reference_HGII ) / $kT ) ) " | bc -l )

> <WEIGHT_DEFINITION_1>
w1=$( echo "1 / ( 1 + e( $hartree_to_kcalmol * ( ( ( $freeEnergyX + 2*$G_Ethene - $freeEnergyD - 2*$G_Propene ) ) - ( $DG_referenceProductionBarrier + $magnitude4 ) ) / $kT ) )" | bc -l )

> <WEIGHT_DEFINITION_2>
w1=$( echo "1 / ( 1 + e( $hartree_to_kcalmol * ( ( ( $freeEnergyX + 2*$G_Ethene - $freeEnergyD - 2*$G_Propene ) ) - ( $DG_referenceProductionBarrier + $magnitude4 ) ) / $kT ) )" | bc -l )

> <WEIGHT_DEFINITION_3>
w1=$( echo "1 / ( 1 + e( $hartree_to_kcalmol * ( ( ( $freeEnergyX + 2*$G_Ethene - $freeEnergyD - 2*$G_Propene ) ) - ( $DG_referenceProductionBarrier + $magnitude4 ) ) / $kT ) )" | bc -l )

> <WEIGHT_DEFINITION_4>
w1=$( echo "1 / ( 1 + e( $hartree_to_kcalmol * ( ( ( $freeEnergyX + 2*$G_Ethene - $freeEnergyD - 2*$G_Propene ) ) - ( $DG_referenceProductionBarrier + $magnitude4 ) ) / $kT ) )" | bc -l )

> <CALCULATION_OF_OVERALL_FITNESS>
fitness=$( echo "( $desc1 + $desc2 + $desc3 ) * ( $w1 * $w2 * $w3 * $w4 )" | bc -l )

> <freeEnergyA>
-6629.60223386

> <freeEnergyF>
-6629.58837204

> <freeEnergyE>
-2402.13797039

> <freeEnergyC>
-6284.34731859

> <freeEnergyL>
-924.272518467

> <freeEnergyX>
-6362.87789763

> <freeEnergyZ>
-6284.32604896

> <freeEnergyD>
-6284.3687762

> <G_Propene>
-117.738020895

> <G_Ethene>
-78.4716324751

> <G_HoveydaProd>
-502.204109499

> <G_SIMes>
-924.27249048

> <G_HG_RuCl2_SIMes>
-2402.13728523

> <DG_referenceProductionBarrier>
0.01468968

> <DG_referencePrecursorStabilityHII>
-0.0052201621

> <DG_referencePrecursorStabilityHI>
0.0117775312

> <DDG_referencePrecursorStability>
.0169976933

> <DG_referenceSynt>
0.0226072217

> <hartree_to_kcalmol>
627.49467516

> <boltzmann_constant>
0.0000000000000000000000138066

> <avogadro_number>
602214000000000000000000

> <jmol_to_kcalmol>
0.00023901

> <temp>
313.15

> <kT>
.6223089948281258706000000000

> <magnitude1>
1.43290809

> <magnitude2>
2.86581618

> <magnitude3>
4.29872427

> <magnitude4>
5.73163236

> <DFT_IDENTIFIER>
1723866333613

> <DFT_MACHINE>
158.39.114.73

> <XTB_IDENTIFIER>
NREC

> <XTB_MACHINE>
NREC

> <DESCRIPTOR_1>
.04134558260279748147

> <DESCRIPTOR_2>
11.967471896055677832

> <DESCRIPTOR_3>
0.0000000001

> <WEIGHT_1>
.99959642714674440429

> <WEIGHT_2>
.99999999263756910503

> <WEIGHT_3>
.99999999999351040711

> <WEIGHT_4>
.99991495086005659753

> <FITNESS>
12.00295003016219216708

$$$$
