
  CDK     02052416093D

 71 74  0  0  0  0  0  0  0  0999 V2000
   -0.9493   -4.0470   -2.1900 C   0  0  0  0  0  0  0  0  0  0  0  0
    0.1136   -4.1164   -2.4794 H   0  0  0  0  0  0  0  0  0  0  0  0
   -1.5001   -4.9410   -2.5581 H   0  0  0  0  0  0  0  0  0  0  0  0
   -1.3880   -3.1715   -2.7141 H   0  0  0  0  0  0  0  0  0  0  0  0
   -1.1297   -3.9504   -0.6920 C   0  0  0  0  0  0  0  0  0  0  0  0
   -2.1772   -3.9708   -0.3382 H   0  0  0  0  0  0  0  0  0  0  0  0
   -0.1752   -4.4256    0.2549 C   0  0  0  0  0  0  0  0  0  0  0  0
    0.8279   -4.6685   -0.1364 H   0  0  0  0  0  0  0  0  0  0  0  0
   -0.6374   -5.1250    1.5110 C   0  0  0  0  0  0  0  0  0  0  0  0
    0.1665   -5.2228    2.2645 H   0  0  0  0  0  0  0  0  0  0  0  0
   -0.9712   -6.1505    1.2415 H   0  0  0  0  0  0  0  0  0  0  0  0
   -1.4991   -4.5918    1.9592 H   0  0  0  0  0  0  0  0  0  0  0  0
    0.6387   -2.5768    1.3974 C   0  0  0  0  0  0  0  0  0  0  0  0
    0.1664   -2.7228    2.3903 H   0  0  0  0  0  0  0  0  0  0  0  0
    1.7359   -2.7192    1.3070 H   0  0  0  0  0  0  0  0  0  0  0  0
   -0.3561   -2.0288   -0.0488 Ru  0  0  0  0  0  0  0  0  0  0  0  0
   -2.3245   -2.0131    1.3584 Cl  0  0  0  0  0  0  0  0  0  0  0  0
    1.6564   -2.2813   -1.3511 Cl  0  0  0  0  0  0  0  0  0  0  0  0
   -0.5837   -0.0844   -0.2527 C   0  0  0  0  0  0  0  0  0  0  0  0
   -1.6126    0.5785   -1.2021 C   0  0  0  0  0  0  0  0  0  0  0  0
   -1.9451    1.8593   -0.3951 C   0  0  0  0  0  0  0  0  0  0  0  0
   -2.3404    2.6794   -1.0209 H   0  0  0  0  0  0  0  0  0  0  0  0
   -2.7087    1.6037    0.3668 H   0  0  0  0  0  0  0  0  0  0  0  0
   -0.6392    2.2553    0.3148 C   0  0  0  0  0  0  0  0  0  0  0  0
   -0.0362    0.8706    0.5107 N   0  0  0  0  0  0  0  0  0  0  0  0
   -2.8572   -0.2938   -1.4524 C   0  0  0  0  0  0  0  0  0  0  0  0
   -3.5745    0.2594   -2.0899 H   0  0  0  0  0  0  0  0  0  0  0  0
   -3.3400   -0.5891   -0.5032 H   0  0  0  0  0  0  0  0  0  0  0  0
   -2.5808   -1.2192   -1.9986 H   0  0  0  0  0  0  0  0  0  0  0  0
   -0.9928    0.9154   -2.5728 C   0  0  0  0  0  0  0  0  0  0  0  0
    0.1593    0.2711   -3.0568 C   0  0  0  0  0  0  0  0  0  0  0  0
    0.6685   -0.4910   -2.4487 H   0  0  0  0  0  0  0  0  0  0  0  0
    0.6737    0.5818   -4.3265 C   0  0  0  0  0  0  0  0  0  0  0  0
    1.5804    0.0653   -4.6744 H   0  0  0  0  0  0  0  0  0  0  0  0
    0.0416    1.5316   -5.1395 C   0  0  0  0  0  0  0  0  0  0  0  0
    0.4467    1.7762   -6.1322 H   0  0  0  0  0  0  0  0  0  0  0  0
   -1.1234    2.1627   -4.6751 C   0  0  0  0  0  0  0  0  0  0  0  0
   -1.6410    2.9016   -5.3046 H   0  0  0  0  0  0  0  0  0  0  0  0
   -1.6348    1.8554   -3.4073 C   0  0  0  0  0  0  0  0  0  0  0  0
   -2.5531    2.3583   -3.0693 H   0  0  0  0  0  0  0  0  0  0  0  0
    0.2779    3.1405   -0.5425 C   0  0  0  0  0  0  0  0  0  0  0  0
    1.2366    3.3243   -0.0208 H   0  0  0  0  0  0  0  0  0  0  0  0
   -0.2132    4.1212   -0.6997 H   0  0  0  0  0  0  0  0  0  0  0  0
    0.4862    2.7007   -1.5337 H   0  0  0  0  0  0  0  0  0  0  0  0
   -0.8940    2.9581    1.6484 C   0  0  0  0  0  0  0  0  0  0  0  0
   -1.6232    2.4131    2.2728 H   0  0  0  0  0  0  0  0  0  0  0  0
   -1.3059    3.9658    1.4428 H   0  0  0  0  0  0  0  0  0  0  0  0
    0.0443    3.0869    2.2227 H   0  0  0  0  0  0  0  0  0  0  0  0
    1.0583    0.6094    1.4233 C   0  0  0  0  0  0  0  0  0  0  0  0
    2.3851    0.6280    0.9203 C   0  0  0  0  0  0  0  0  0  0  0  0
    3.4312    0.3164    1.8095 C   0  0  0  0  0  0  0  0  0  0  0  0
    4.4630    0.3083    1.4293 H   0  0  0  0  0  0  0  0  0  0  0  0
    3.1802   -0.0104    3.1447 C   0  0  0  0  0  0  0  0  0  0  0  0
    4.0123   -0.2640    3.8177 H   0  0  0  0  0  0  0  0  0  0  0  0
    1.8640   -0.0340    3.6154 C   0  0  0  0  0  0  0  0  0  0  0  0
    1.6622   -0.3159    4.6592 H   0  0  0  0  0  0  0  0  0  0  0  0
    0.7769    0.2697    2.7738 C   0  0  0  0  0  0  0  0  0  0  0  0
    2.7315    0.8963   -0.5280 C   0  0  0  0  0  0  0  0  0  0  0  0
    1.8171    1.0919   -1.1112 H   0  0  0  0  0  0  0  0  0  0  0  0
    3.1358   -0.0487   -0.9471 H   0  0  0  0  0  0  0  0  0  0  0  0
    3.7391    2.0338   -0.7365 C   0  0  0  0  0  0  0  0  0  0  0  0
    4.7080    1.8284   -0.2384 H   0  0  0  0  0  0  0  0  0  0  0  0
    3.3630    2.9977   -0.3362 H   0  0  0  0  0  0  0  0  0  0  0  0
    3.9446    2.1728   -1.8168 H   0  0  0  0  0  0  0  0  0  0  0  0
   -0.6219    0.1505    3.3399 C   0  0  0  0  0  0  0  0  0  0  0  0
   -0.7999   -0.9171    3.5886 H   0  0  0  0  0  0  0  0  0  0  0  0
   -1.3724    0.3622    2.5591 H   0  0  0  0  0  0  0  0  0  0  0  0
   -0.8709    1.0027    4.5912 C   0  0  0  0  0  0  0  0  0  0  0  0
   -0.7208    2.0828    4.3925 H   0  0  0  0  0  0  0  0  0  0  0  0
   -0.1911    0.7263    5.4221 H   0  0  0  0  0  0  0  0  0  0  0  0
   -1.9091    0.8618    4.9530 H   0  0  0  0  0  0  0  0  0  0  0  0
  1  2  1  0  0  0  0
  1  5  1  0  0  0  0
  3  1  1  0  0  0  0
  4  1  1  0  0  0  0
  5  6  1  0  0  0  0
  5 16  1  0  0  0  0
  5  7  1  0  0  0  0
  7  9  1  0  0  0  0
  7  8  1  0  0  0  0
  9 10  1  0  0  0  0
 11  9  1  0  0  0  0
 12  9  1  0  0  0  0
 13 14  1  0  0  0  0
 13 15  1  0  0  0  0
 13  7  1  0  0  0  0
 16 13  1  0  0  0  0
 16 17  1  0  0  0  0
 16 18  1  0  0  0  0
 19 25  1  0  0  0  0
 20 21  1  0  0  0  0
 20 26  1  0  0  0  0
 20 30  1  0  0  0  0
 21 22  1  0  0  0  0
 21 23  1  0  0  0  0
 21 24  1  0  0  0  0
 24 25  1  0  0  0  0
 24 41  1  0  0  0  0
 24 45  1  0  0  0  0
 25 49  1  0  0  0  0
 26 27  1  0  0  0  0
 26 28  1  0  0  0  0
 26 29  1  0  0  0  0
 30 31  1  0  0  0  0
 30 39  2  0  0  0  0
 31 32  1  0  0  0  0
 31 33  2  0  0  0  0
 33 34  1  0  0  0  0
 33 35  1  0  0  0  0
 35 36  1  0  0  0  0
 35 37  2  0  0  0  0
 37 38  1  0  0  0  0
 37 39  1  0  0  0  0
 39 40  1  0  0  0  0
 41 42  1  0  0  0  0
 41 43  1  0  0  0  0
 41 44  1  0  0  0  0
 45 46  1  0  0  0  0
 45 47  1  0  0  0  0
 45 48  1  0  0  0  0
 49 50  1  0  0  0  0
 49 57  2  0  0  0  0
 50 51  2  0  0  0  0
 50 58  1  0  0  0  0
 51 52  1  0  0  0  0
 51 53  1  0  0  0  0
 53 54  1  0  0  0  0
 53 55  2  0  0  0  0
 55 56  1  0  0  0  0
 55 57  1  0  0  0  0
 57 65  1  0  0  0  0
 58 59  1  0  0  0  0
 58 60  1  0  0  0  0
 58 61  1  0  0  0  0
 61 62  1  0  0  0  0
 61 63  1  0  0  0  0
 61 64  1  0  0  0  0
 65 66  1  0  0  0  0
 65 67  1  0  0  0  0
 65 68  1  0  0  0  0
 68 69  1  0  0  0  0
 68 70  1  0  0  0  0
 68 71  1  0  0  0  0
 19 20  1  0  0  0  0
 16 19  1  0  0  0  0
M  END
>  <DFT-ENERGY>
-2158.61318088

$$$$
