
  CDK     02052423513D

 65 69  0  0  0  0  0  0  0  0999 V2000
    0.3757    0.5126   -4.2195 H   0  0  0  0  0  0  0  0  0  0  0  0
    1.4981    0.0695   -4.4602 C   0  0  0  0  0  0  0  0  0  0  0  0
    1.4090    0.4209   -5.5087 H   0  0  0  0  0  0  0  0  0  0  0  0
    2.2092    0.8487   -3.4069 C   0  0  0  0  0  0  0  0  0  0  0  0
    3.1526    0.4616   -2.9963 H   0  0  0  0  0  0  0  0  0  0  0  0
    2.1495    1.9467   -3.5089 H   0  0  0  0  0  0  0  0  0  0  0  0
    0.5259   -0.0714   -2.5513 Ru  0  0  0  0  0  0  0  0  0  0  0  0
    1.2435   -1.3390   -4.0722 C   0  0  0  0  0  0  0  0  0  0  0  0
    2.0661   -1.9653   -3.7008 H   0  0  0  0  0  0  0  0  0  0  0  0
    0.4589   -1.8575   -4.6501 H   0  0  0  0  0  0  0  0  0  0  0  0
    2.2777   -1.1946   -1.3169 Cl  0  0  0  0  0  0  0  0  0  0  0  0
   -1.6579    0.4197   -3.5240 Cl  0  0  0  0  0  0  0  0  0  0  0  0
   -0.3687    0.0366   -0.7708 C   0  0  0  0  0  0  0  0  0  0  0  0
   -0.7438    1.4166   -0.1751 C   0  0  0  0  0  0  0  0  0  0  0  0
   -2.1579    1.0882    0.3592 C   0  0  0  0  0  0  0  0  0  0  0  0
   -2.4987    1.7693    1.1593 H   0  0  0  0  0  0  0  0  0  0  0  0
   -2.8661    1.1717   -0.4887 H   0  0  0  0  0  0  0  0  0  0  0  0
   -2.1061   -0.3758    0.8356 C   0  0  0  0  0  0  0  0  0  0  0  0
   -1.0045   -0.9091   -0.0832 N   0  0  0  0  0  0  0  0  0  0  0  0
   -0.7485    2.5936   -1.1680 C   0  0  0  0  0  0  0  0  0  0  0  0
   -1.0138    3.5216   -0.6238 H   0  0  0  0  0  0  0  0  0  0  0  0
   -1.4635    2.4268   -1.9933 H   0  0  0  0  0  0  0  0  0  0  0  0
    0.2621    2.7352   -1.6011 H   0  0  0  0  0  0  0  0  0  0  0  0
    0.2550    1.7842    0.9448 C   0  0  0  0  0  0  0  0  0  0  0  0
    1.6031    1.3838    0.8889 C   0  0  0  0  0  0  0  0  0  0  0  0
    1.9500    0.7329    0.0728 H   0  0  0  0  0  0  0  0  0  0  0  0
    2.5099    1.7823    1.8838 C   0  0  0  0  0  0  0  0  0  0  0  0
    3.5540    1.4417    1.8226 H   0  0  0  0  0  0  0  0  0  0  0  0
    2.0937    2.6009    2.9423 C   0  0  0  0  0  0  0  0  0  0  0  0
    2.8046    2.9111    3.7219 H   0  0  0  0  0  0  0  0  0  0  0  0
    0.7578    3.0279    2.9921 C   0  0  0  0  0  0  0  0  0  0  0  0
    0.4154    3.6816    3.8079 H   0  0  0  0  0  0  0  0  0  0  0  0
   -0.1498    2.6247    2.0026 C   0  0  0  0  0  0  0  0  0  0  0  0
   -1.1884    2.9808    2.0617 H   0  0  0  0  0  0  0  0  0  0  0  0
   -1.7427   -0.5305    2.3167 C   0  0  0  0  0  0  0  0  0  0  0  0
   -1.6143   -1.5988    2.5750 H   0  0  0  0  0  0  0  0  0  0  0  0
   -2.5773   -0.1350    2.9287 H   0  0  0  0  0  0  0  0  0  0  0  0
   -0.8268    0.0215    2.5903 H   0  0  0  0  0  0  0  0  0  0  0  0
   -3.4211   -1.1101    0.5657 C   0  0  0  0  0  0  0  0  0  0  0  0
   -3.7522   -0.9880   -0.4813 H   0  0  0  0  0  0  0  0  0  0  0  0
   -4.2034   -0.6844    1.2250 H   0  0  0  0  0  0  0  0  0  0  0  0
   -3.3351   -2.1907    0.7924 H   0  0  0  0  0  0  0  0  0  0  0  0
   -0.7014   -2.3309   -0.1489 C   0  0  0  0  0  0  0  0  0  0  0  0
    0.2511   -2.8577    0.7641 C   0  0  0  0  0  0  0  0  0  0  0  0
    0.5052   -4.2407    0.7210 C   0  0  0  0  0  0  0  0  0  0  0  0
    1.2510   -4.6620    1.4101 H   0  0  0  0  0  0  0  0  0  0  0  0
   -0.1343   -5.0735   -0.2004 C   0  0  0  0  0  0  0  0  0  0  0  0
    0.0916   -6.1495   -0.2234 H   0  0  0  0  0  0  0  0  0  0  0  0
   -1.0411   -4.5262   -1.1109 C   0  0  0  0  0  0  0  0  0  0  0  0
   -1.5212   -5.1727   -1.8595 H   0  0  0  0  0  0  0  0  0  0  0  0
   -1.3459   -3.1517   -1.1076 C   0  0  0  0  0  0  0  0  0  0  0  0
    1.0757   -2.0102    1.7114 C   0  0  0  0  0  0  0  0  0  0  0  0
    0.7673   -0.9538    1.6545 H   0  0  0  0  0  0  0  0  0  0  0  0
    2.1143   -2.0158    1.3188 H   0  0  0  0  0  0  0  0  0  0  0  0
    1.0812   -2.4792    3.1712 C   0  0  0  0  0  0  0  0  0  0  0  0
    1.4982   -3.5004    3.2811 H   0  0  0  0  0  0  0  0  0  0  0  0
    0.0624   -2.4916    3.6088 H   0  0  0  0  0  0  0  0  0  0  0  0
    1.7048   -1.8005    3.7871 H   0  0  0  0  0  0  0  0  0  0  0  0
   -2.2917   -2.6215   -2.1627 C   0  0  0  0  0  0  0  0  0  0  0  0
   -1.7763   -2.6937   -3.1450 H   0  0  0  0  0  0  0  0  0  0  0  0
   -2.4562   -1.5400   -2.0270 H   0  0  0  0  0  0  0  0  0  0  0  0
   -3.6360   -3.3550   -2.2457 C   0  0  0  0  0  0  0  0  0  0  0  0
   -4.1909   -3.2981   -1.2875 H   0  0  0  0  0  0  0  0  0  0  0  0
   -3.5147   -4.4290   -2.4916 H   0  0  0  0  0  0  0  0  0  0  0  0
   -4.2699   -2.9043   -3.0352 H   0  0  0  0  0  0  0  0  0  0  0  0
  1  2  1  0  0  0  0
  1  7  1  0  0  0  0
  2  3  1  0  0  0  0
  2  4  1  0  0  0  0
  4  5  1  0  0  0  0
  6  4  1  0  0  0  0
  7  8  1  0  0  0  0
  7  4  1  0  0  0  0
  8  2  1  0  0  0  0
  8  9  1  0  0  0  0
 10  8  1  0  0  0  0
  7 11  1  0  0  0  0
  7 12  1  0  0  0  0
 13 19  1  0  0  0  0
 14 15  1  0  0  0  0
 14 20  1  0  0  0  0
 14 24  1  0  0  0  0
 15 16  1  0  0  0  0
 15 17  1  0  0  0  0
 15 18  1  0  0  0  0
 18 19  1  0  0  0  0
 18 35  1  0  0  0  0
 18 39  1  0  0  0  0
 19 43  1  0  0  0  0
 20 21  1  0  0  0  0
 20 22  1  0  0  0  0
 20 23  1  0  0  0  0
 24 25  1  0  0  0  0
 24 33  2  0  0  0  0
 25 26  1  0  0  0  0
 25 27  2  0  0  0  0
 27 28  1  0  0  0  0
 27 29  1  0  0  0  0
 29 30  1  0  0  0  0
 29 31  2  0  0  0  0
 31 32  1  0  0  0  0
 31 33  1  0  0  0  0
 33 34  1  0  0  0  0
 35 36  1  0  0  0  0
 35 37  1  0  0  0  0
 35 38  1  0  0  0  0
 39 40  1  0  0  0  0
 39 41  1  0  0  0  0
 39 42  1  0  0  0  0
 43 44  1  0  0  0  0
 43 51  2  0  0  0  0
 44 45  2  0  0  0  0
 44 52  1  0  0  0  0
 45 46  1  0  0  0  0
 45 47  1  0  0  0  0
 47 48  1  0  0  0  0
 47 49  2  0  0  0  0
 49 50  1  0  0  0  0
 49 51  1  0  0  0  0
 51 59  1  0  0  0  0
 52 53  1  0  0  0  0
 52 54  1  0  0  0  0
 52 55  1  0  0  0  0
 55 56  1  0  0  0  0
 55 57  1  0  0  0  0
 55 58  1  0  0  0  0
 59 60  1  0  0  0  0
 59 61  1  0  0  0  0
 59 62  1  0  0  0  0
 62 63  1  0  0  0  0
 62 64  1  0  0  0  0
 62 65  1  0  0  0  0
 13 14  1  0  0  0  0
  7 13  1  0  0  0  0
M  END
>  <DFT-ENERGY>
-2080.05563987

$$$$
