LOVPETMODN5_A1
  CDK     02052411103D

 78 82  0  0  0  0  0  0  0  0999 V2000
   -1.4721    0.6872   -0.1014 Ru  0  0  0  0  0  0  0  0  0  0  0  0
   -3.2465    0.7967   -1.4906 O   0  0  0  0  0  0  0  0  0  0  0  0
   -2.6225    1.6933    0.9027 C   0  0  0  0  0  0  0  0  0  0  0  0
   -2.3721    1.9713    1.9254 H   0  0  0  0  0  0  0  0  0  0  0  0
   -3.5293    0.0375   -2.7164 C   0  0  0  0  0  0  0  0  0  0  0  0
   -3.8993    0.7563   -3.4780 H   0  0  0  0  0  0  0  0  0  0  0  0
   -2.1364   -0.4861   -3.0422 C   0  0  0  0  0  0  0  0  0  0  0  0
   -2.1044   -0.9803   -4.0169 H   0  0  0  0  0  0  0  0  0  0  0  0
   -1.7950   -1.2118   -2.2794 H   0  0  0  0  0  0  0  0  0  0  0  0
   -1.4041    0.3463   -3.0525 H   0  0  0  0  0  0  0  0  0  0  0  0
   -4.5326   -1.0538   -2.3863 C   0  0  0  0  0  0  0  0  0  0  0  0
   -4.2400   -1.5642   -1.4481 H   0  0  0  0  0  0  0  0  0  0  0  0
   -4.5791   -1.8165   -3.1699 H   0  0  0  0  0  0  0  0  0  0  0  0
   -5.5433   -0.6634   -2.2282 H   0  0  0  0  0  0  0  0  0  0  0  0
   -4.1877    1.6547   -0.9856 C   0  0  0  0  0  0  0  0  0  0  0  0
   -5.3331    2.0748   -1.6386 C   0  0  0  0  0  0  0  0  0  0  0  0
   -5.5723    1.7387   -2.6449 H   0  0  0  0  0  0  0  0  0  0  0  0
   -6.1814    2.9598   -0.9811 C   0  0  0  0  0  0  0  0  0  0  0  0
   -7.0846    3.3041   -1.4899 H   0  0  0  0  0  0  0  0  0  0  0  0
   -5.9028    3.4151    0.3042 C   0  0  0  0  0  0  0  0  0  0  0  0
   -6.5864    4.1034    0.7983 H   0  0  0  0  0  0  0  0  0  0  0  0
   -4.7575    2.9835    0.9458 C   0  0  0  0  0  0  0  0  0  0  0  0
   -4.5428    3.3255    1.9571 H   0  0  0  0  0  0  0  0  0  0  0  0
   -3.8740    2.1119    0.3064 C   0  0  0  0  0  0  0  0  0  0  0  0
   -2.1914   -1.4218    0.4480 Cl  0  0  0  0  0  0  0  0  0  0  0  0
   -0.5393    2.3502   -1.4697 Cl  0  0  0  0  0  0  0  0  0  0  0  0
    0.2271    0.6637    1.3286 P   0  0  0  0  0  0  0  0  0  0  0  0
    1.7862    0.0356    0.3916 C   0  0  0  0  0  0  0  0  0  0  0  0
    2.3939   -0.5761    1.1059 H   0  0  0  0  0  0  0  0  0  0  0  0
    1.2815   -0.8647   -0.7501 C   0  0  0  0  0  0  0  0  0  0  0  0
    0.5879   -1.6564   -0.3903 H   0  0  0  0  0  0  0  0  0  0  0  0
    0.7193   -0.2656   -1.5132 H   0  0  0  0  0  0  0  0  0  0  0  0
    0.4251    3.4941    1.3701 C   0  0  0  0  0  0  0  0  0  0  0  0
    1.1021    3.4621    0.4896 H   0  0  0  0  0  0  0  0  0  0  0  0
   -0.6058    3.5124    0.9459 H   0  0  0  0  0  0  0  0  0  0  0  0
    3.4385   -0.4469   -2.0085 C   0  0  0  0  0  0  0  0  0  0  0  0
    2.9401    0.1126   -2.8250 H   0  0  0  0  0  0  0  0  0  0  0  0
    4.3242   -0.9283   -2.4622 H   0  0  0  0  0  0  0  0  0  0  0  0
    0.0460   -0.6692    2.7119 C   0  0  0  0  0  0  0  0  0  0  0  0
   -0.2123   -1.6293    2.1834 H   0  0  0  0  0  0  0  0  0  0  0  0
    0.6348    2.2816    2.2872 C   0  0  0  0  0  0  0  0  0  0  0  0
   -0.1134    2.3370    3.1219 H   0  0  0  0  0  0  0  0  0  0  0  0
    2.6696    1.1475   -0.1828 C   0  0  0  0  0  0  0  0  0  0  0  0
    2.0952    1.7795   -0.8978 H   0  0  0  0  0  0  0  0  0  0  0  0
    3.0351    1.8317    0.6166 H   0  0  0  0  0  0  0  0  0  0  0  0
    2.0598    4.8319    2.7794 C   0  0  0  0  0  0  0  0  0  0  0  0
    2.8347    4.8576    1.9892 H   0  0  0  0  0  0  0  0  0  0  0  0
    2.1894    5.7608    3.3651 H   0  0  0  0  0  0  0  0  0  0  0  0
    3.8783    0.5328   -0.9108 C   0  0  0  0  0  0  0  0  0  0  0  0
    4.4926    1.3391   -1.3542 H   0  0  0  0  0  0  0  0  0  0  0  0
    4.5307    0.0126   -0.1845 H   0  0  0  0  0  0  0  0  0  0  0  0
    2.4824   -1.5166   -1.4602 C   0  0  0  0  0  0  0  0  0  0  0  0
    3.0200   -2.1821   -0.7590 H   0  0  0  0  0  0  0  0  0  0  0  0
    2.1260   -2.1629   -2.2838 H   0  0  0  0  0  0  0  0  0  0  0  0
    0.6666    4.8048    2.1378 C   0  0  0  0  0  0  0  0  0  0  0  0
   -0.1088    4.9349    2.9160 H   0  0  0  0  0  0  0  0  0  0  0  0
    0.5519    5.6619    1.4466 H   0  0  0  0  0  0  0  0  0  0  0  0
    2.0369    2.2994    2.9077 C   0  0  0  0  0  0  0  0  0  0  0  0
    2.1789    1.4421    3.6052 H   0  0  0  0  0  0  0  0  0  0  0  0
    2.8209    2.2027    2.1196 H   0  0  0  0  0  0  0  0  0  0  0  0
   -1.1322   -0.3029    3.6233 C   0  0  0  0  0  0  0  0  0  0  0  0
   -0.9692    0.6681    4.1310 H   0  0  0  0  0  0  0  0  0  0  0  0
   -2.0690   -0.2112    3.0246 H   0  0  0  0  0  0  0  0  0  0  0  0
    1.3304   -0.9022    3.5137 C   0  0  0  0  0  0  0  0  0  0  0  0
    1.6636    0.0330    4.0222 H   0  0  0  0  0  0  0  0  0  0  0  0
    2.1643   -1.2096    2.8478 H   0  0  0  0  0  0  0  0  0  0  0  0
    2.2733    3.6081    3.6798 C   0  0  0  0  0  0  0  0  0  0  0  0
    3.2986    3.6171    4.0939 H   0  0  0  0  0  0  0  0  0  0  0  0
    1.5909    3.6603    4.5497 H   0  0  0  0  0  0  0  0  0  0  0  0
   -0.0632   -1.6397    5.5005 C   0  0  0  0  0  0  0  0  0  0  0  0
    0.1840   -0.7426    6.0990 H   0  0  0  0  0  0  0  0  0  0  0  0
   -0.2296   -2.4569    6.2269 H   0  0  0  0  0  0  0  0  0  0  0  0
    1.1112   -1.9915    4.5772 C   0  0  0  0  0  0  0  0  0  0  0  0
    0.9175   -2.9634    4.0827 H   0  0  0  0  0  0  0  0  0  0  0  0
    2.0335   -2.1274    5.1712 H   0  0  0  0  0  0  0  0  0  0  0  0
   -1.3427   -1.3909    4.6912 C   0  0  0  0  0  0  0  0  0  0  0  0
   -2.1690   -1.0990    5.3653 H   0  0  0  0  0  0  0  0  0  0  0  0
   -1.6670   -2.3306    4.2007 H   0  0  0  0  0  0  0  0  0  0  0  0
  1  2  1  0  0  0  0
  1  3  2  0  0  0  0
  3  4  1  0  0  0  0
  2  5  1  0  0  0  0
  5  6  1  0  0  0  0
  5  7  1  0  0  0  0
  7  8  1  0  0  0  0
  7  9  1  0  0  0  0
  7 10  1  0  0  0  0
  5 11  1  0  0  0  0
 11 12  1  0  0  0  0
 11 13  1  0  0  0  0
 11 14  1  0  0  0  0
  2 15  1  0  0  0  0
 15 24  1  0  0  0  0
 15 16  2  0  0  0  0
 16 17  1  0  0  0  0
 16 18  1  0  0  0  0
 18 19  1  0  0  0  0
 18 20  2  0  0  0  0
 20 21  1  0  0  0  0
 20 22  1  0  0  0  0
 22 24  2  0  0  0  0
 22 23  1  0  0  0  0
  3 24  1  0  0  0  0
  1 25  1  0  0  0  0
  1 26  1  0  0  0  0
 27 28  1  0  0  0  0
 28 29  1  0  0  0  0
 28 30  1  0  0  0  0
 30 31  1  0  0  0  0
 30 32  1  0  0  0  0
 33 34  1  0  0  0  0
 33 35  1  0  0  0  0
 36 37  1  0  0  0  0
 36 38  1  0  0  0  0
 27 39  1  0  0  0  0
 39 40  1  0  0  0  0
 27 41  1  0  0  0  0
 41 42  1  0  0  0  0
 28 43  1  0  0  0  0
 43 44  1  0  0  0  0
 43 45  1  0  0  0  0
 46 47  1  0  0  0  0
 46 48  1  0  0  0  0
 36 49  1  0  0  0  0
 49 50  1  0  0  0  0
 49 51  1  0  0  0  0
 30 52  1  0  0  0  0
 52 53  1  0  0  0  0
 52 54  1  0  0  0  0
 33 55  1  0  0  0  0
 55 56  1  0  0  0  0
 55 57  1  0  0  0  0
 41 58  1  0  0  0  0
 58 59  1  0  0  0  0
 58 60  1  0  0  0  0
 39 61  1  0  0  0  0
 61 62  1  0  0  0  0
 61 63  1  0  0  0  0
 39 64  1  0  0  0  0
 64 65  1  0  0  0  0
 64 66  1  0  0  0  0
 46 67  1  0  0  0  0
 67 68  1  0  0  0  0
 67 69  1  0  0  0  0
 70 71  1  0  0  0  0
 70 72  1  0  0  0  0
 64 73  1  0  0  0  0
 73 74  1  0  0  0  0
 73 75  1  0  0  0  0
 61 76  1  0  0  0  0
 76 77  1  0  0  0  0
 76 78  1  0  0  0  0
 33 41  1  0  0  0  0
 36 52  1  0  0  0  0
 43 49  1  0  0  0  0
 46 55  1  0  0  0  0
 58 67  1  0  0  0  0
 70 73  1  0  0  0  0
 70 76  1  0  0  0  0
  1 27  1  0  0  0  0
M  END
> <FrozenCore-PM6_ENERGY>
104.978

> <RMSD_CONF_CG-CS>
0.566303

> <RMSD_CONF_GO-CS>
0.000000

> <UID>


> <freeEnergyA>
-2523.95664391

> <freeEnergyF>
-2523.93695037

> <freeEnergyE>
-2523.95664391

> <freeEnergyC>
-2178.68230718

> <freeEnergyL>
-1046.11466606

> <freeEnergyX>
-2257.21505556

> <freeEnergyZ>
-2178.67498624

> <freeEnergyD>
-2178.70414476

> <G_Propene>
-117.738020895

> <G_Ethene>
-78.4716324751

> <G_HoveydaProd>
-502.204109499

> <G_SIMes>
-924.27249048

> <G_HG_RuCl2_SIMes>
-2402.13728523

> <DG_referenceProductionBarrier>
0.01468968

> <hartree_to_kcalmol>
627.49467516

> <DFT_IDENTIFIER>
1707196331923

> <DFT_MACHINE>
158.36.42.38

> <XTB_IDENTIFIER>
NREC

> <XTB_MACHINE>
NREC

> <DE_Synth>
14.3174832536582040

> <DESCRIPTOR_DEFINITION_1>
desc1=( echo "1 * ( e( $hartree_to_kcalmol * ( ( $freeEnergyZ - $freeEnergyD ) - ( $freeEnergyX + 2*$G_Ethene - $freeEnergyD - 2*$G_Propene ) - $DDG_reference_HGII ) / $kT ) ) " | bc -l )

> <DESCRIPTOR_DEFINITION_2>
desc2=$( echo "1 * ( $hartree_to_kcalmol * ( ( $freeEnergyZ - $freeEnergyD ) - ( $freeEnergyX + 2*$G_Ethene - $freeEnergyD - 2*$G_Propene ) ) )" | bc -l )

> <DESCRIPTOR_DEFINITION_3>
desc3=$( echo "1 * $hartree_to_kcalmol * ( $DG_referenceProductionBarrier - ( $freeEnergyX + 2*$G_Ethene - $freeEnergyD - 2*$G_Propene ) )" | bc -l )

> <WEIGHT_DEFINITION_1>
w1=$( echo "1 / ( 1 + e( $hartree_to_kcalmol * ( ( ( $freeEnergyX + 2*$G_Ethene - $freeEnergyD - 2*$G_Propene ) ) - ( $DG_referenceProductionBarrier + $magnitude4 ) ) / $kT ) )" | bc -l )

> <WEIGHT_DEFINITION_2>
w2=$( echo "1 / ( 1 + e( $hartree_to_kcalmol * ( ABS( $freeEnergyC + $G_HoveydaProd - $freeEnergyA - 2*${G_Ethene} - $DG_referencePrecursorStabilityHII ) - ( $DDG_referencePrecursorStability + $magnitude1 ) ) / $kT ) )" | bc -l )

> <WEIGHT_DEFINITION_3>
w3=$( echo "1 / ( 1 + e( $hartree_to_kcalmol * ( ( $freeEnergyE + $G_SIMes - $G_HG_RuCl2_SIMes - $freeEnergyL ) - ( $DG_referenceSynt  + $magnitude1 ) ) / $kT ) )" | bc -l )

> <WEIGHT_DEFINITION_4>
w4=$( echo "1 / ( 1 + e( $hartree_to_kcalmol * ( - ( $freeEnergyF - $freeEnergyA ) + $magnitude2 ) / $kT ) )" | bc -l )

> <FITNESS_DEFINITION>
fitness=$( echo "( $desc1 + $desc2 + $desc3 ) * $w1 * $w2 * $w3 * $w4" | bc -l )

> <DESCRIPTOR_1>
.00000028713980115319

> <DESCRIPTOR_2>
4.575992494209731832

> <DESCRIPTOR_3>
.254376928889736600

> <WEIGHT_1>
.99993355241322978257

> <WEIGHT_2>
.63960007329030920233

> <WEIGHT_3>
.89003917892492197448

> <WEIGHT_4>
.99999976236074937460

> <FITNESS>
2.74959696421037379993

$$$$
