DIPP-3_A1
  CDK     08132410253D

 93 97  0  0  0  0  0  0  0  0999 V2000
    1.2358   -0.4343   -0.2673 Ru  0  0  0  0  0  0  0  0  0  0  0  0
    3.0136   -0.4343   -1.6565 O   0  0  0  0  0  0  0  0  0  0  0  0
    2.4460   -1.3676    0.7368 C   0  0  0  0  0  0  0  0  0  0  0  0
    2.2132   -1.6605    1.7595 H   0  0  0  0  0  0  0  0  0  0  0  0
    3.2491    0.3409   -2.8823 C   0  0  0  0  0  0  0  0  0  0  0  0
    3.6554   -0.3597   -3.6420 H   0  0  0  0  0  0  0  0  0  0  0  0
    1.8265    0.7843   -3.1937 C   0  0  0  0  0  0  0  0  0  0  0  0
    1.1377   -0.0857   -3.1999 H   0  0  0  0  0  0  0  0  0  0  0  0
    1.7532    1.2861   -4.1616 H   0  0  0  0  0  0  0  0  0  0  0  0
    1.4435    1.4808   -2.4189 H   0  0  0  0  0  0  0  0  0  0  0  0
    4.1895    1.4853   -2.5507 C   0  0  0  0  0  0  0  0  0  0  0  0
    3.8719    1.9711   -1.6064 H   0  0  0  0  0  0  0  0  0  0  0  0
    4.1835    2.2564   -3.3275 H   0  0  0  0  0  0  0  0  0  0  0  0
    5.2229    1.1557   -2.4021 H   0  0  0  0  0  0  0  0  0  0  0  0
    4.0058   -1.2327   -1.1515 C   0  0  0  0  0  0  0  0  0  0  0  0
    5.1749   -1.5816   -1.8045 C   0  0  0  0  0  0  0  0  0  0  0  0
    5.3940   -1.2309   -2.8104 H   0  0  0  0  0  0  0  0  0  0  0  0
    6.0760   -2.4127   -1.1471 C   0  0  0  0  0  0  0  0  0  0  0  0
    6.9986   -2.7002   -1.6559 H   0  0  0  0  0  0  0  0  0  0  0  0
    5.8261   -2.8842    0.1383 C   0  0  0  0  0  0  0  0  0  0  0  0
    6.5511   -3.5285    0.6328 H   0  0  0  0  0  0  0  0  0  0  0  0
    4.6564   -2.5239    0.7799 C   0  0  0  0  0  0  0  0  0  0  0  0
    4.4632   -2.8785    1.7912 H   0  0  0  0  0  0  0  0  0  0  0  0
    3.7209   -1.7084    0.1405 C   0  0  0  0  0  0  0  0  0  0  0  0
    1.8386    1.7691    0.2959 Cl  0  0  0  0  0  0  0  0  0  0  0  0
    0.4074   -2.1513   -1.6353 Cl  0  0  0  0  0  0  0  0  0  0  0  0
   -0.3815   -0.4657    0.8699 C   0  0  0  0  0  0  0  0  0  0  0  0
   -0.7027   -1.1574    2.0382 N   0  0  0  0  0  0  0  0  0  0  0  0
   -2.1403   -0.9969    2.4676 C   0  0  0  0  0  0  0  0  0  0  0  0
   -2.7107   -0.0185    1.4316 C   0  0  0  0  0  0  0  0  0  0  0  0
   -1.5469    0.2226    0.5078 N   0  0  0  0  0  0  0  0  0  0  0  0
   -2.6482   -1.9830    2.4508 H   0  0  0  0  0  0  0  0  0  0  0  0
   -2.1923   -0.6058    3.5035 H   0  0  0  0  0  0  0  0  0  0  0  0
   -3.0422    0.9486    1.8815 H   0  0  0  0  0  0  0  0  0  0  0  0
   -3.5693   -0.4417    0.8580 H   0  0  0  0  0  0  0  0  0  0  0  0
    0.1113   -1.9909    2.8938 C   0  0  0  0  0  0  0  0  0  0  0  0
    1.5302   -3.6302    4.6526 C   0  0  0  0  0  0  0  0  0  0  0  0
    0.7036   -1.4230    4.0493 C   0  0  0  0  0  0  0  0  0  0  0  0
    0.2375   -3.3697    2.6079 C   0  0  0  0  0  0  0  0  0  0  0  0
    0.9487   -4.1764    3.5096 C   0  0  0  0  0  0  0  0  0  0  0  0
    1.4177   -2.2631    4.9131 C   0  0  0  0  0  0  0  0  0  0  0  0
    1.0497   -5.2425    3.3064 H   0  0  0  0  0  0  0  0  0  0  0  0
    1.8949   -1.8441    5.7991 H   0  0  0  0  0  0  0  0  0  0  0  0
    2.0794   -4.2700    5.3424 H   0  0  0  0  0  0  0  0  0  0  0  0
    0.6245    0.0680    4.3328 C   0  0  0  0  0  0  0  0  0  0  0  0
   -0.2672    0.5025    3.8096 H   0  0  0  0  0  0  0  0  0  0  0  0
    1.8754    0.7432    3.7595 C   0  0  0  0  0  0  0  0  0  0  0  0
    1.8525    1.8281    3.9100 H   0  0  0  0  0  0  0  0  0  0  0  0
    1.9497    0.5817    2.6679 H   0  0  0  0  0  0  0  0  0  0  0  0
    2.7970    0.3640    4.2107 H   0  0  0  0  0  0  0  0  0  0  0  0
    0.4580    0.3679    5.8280 C   0  0  0  0  0  0  0  0  0  0  0  0
   -0.3775   -0.1925    6.2598 H   0  0  0  0  0  0  0  0  0  0  0  0
    0.2662    1.4347    5.9902 H   0  0  0  0  0  0  0  0  0  0  0  0
    1.3579    0.1160    6.4007 H   0  0  0  0  0  0  0  0  0  0  0  0
   -0.3445   -3.9913    1.3498 C   0  0  0  0  0  0  0  0  0  0  0  0
   -0.8339   -3.1962    0.7218 H   0  0  0  0  0  0  0  0  0  0  0  0
    0.7768   -4.5912    0.4934 C   0  0  0  0  0  0  0  0  0  0  0  0
    1.5377   -3.8268    0.2602 H   0  0  0  0  0  0  0  0  0  0  0  0
    0.3870   -4.9251   -0.4774 H   0  0  0  0  0  0  0  0  0  0  0  0
    1.2745   -5.4373    0.9710 H   0  0  0  0  0  0  0  0  0  0  0  0
   -1.4075   -5.0362    1.7117 C   0  0  0  0  0  0  0  0  0  0  0  0
   -2.1913   -4.6090    2.3445 H   0  0  0  0  0  0  0  0  0  0  0  0
   -0.9778   -5.8892    2.2480 H   0  0  0  0  0  0  0  0  0  0  0  0
   -1.8843   -5.4306    0.8066 H   0  0  0  0  0  0  0  0  0  0  0  0
   -1.7956    1.1158   -0.6048 C   0  0  0  0  0  0  0  0  0  0  0  0
   -2.4164    2.8473   -2.7084 C   0  0  0  0  0  0  0  0  0  0  0  0
   -1.6096    2.5108   -0.4361 C   0  0  0  0  0  0  0  0  0  0  0  0
   -2.3530    0.5925   -1.7977 C   0  0  0  0  0  0  0  0  0  0  0  0
   -2.6436    1.4782   -2.8451 C   0  0  0  0  0  0  0  0  0  0  0  0
   -1.9176    3.3582   -1.5103 C   0  0  0  0  0  0  0  0  0  0  0  0
   -3.0627    1.0911   -3.7740 H   0  0  0  0  0  0  0  0  0  0  0  0
   -1.7728    4.4335   -1.4050 H   0  0  0  0  0  0  0  0  0  0  0  0
   -2.6433    3.5210   -3.5336 H   0  0  0  0  0  0  0  0  0  0  0  0
   -1.1542    3.1060    0.8869 C   0  0  0  0  0  0  0  0  0  0  0  0
   -0.5309    2.3438    1.4307 H   0  0  0  0  0  0  0  0  0  0  0  0
   -2.3922    3.4345    1.7377 C   0  0  0  0  0  0  0  0  0  0  0  0
   -2.9772    2.5287    1.9575 H   0  0  0  0  0  0  0  0  0  0  0  0
   -3.0545    4.1430    1.2283 H   0  0  0  0  0  0  0  0  0  0  0  0
   -2.1010    3.8848    2.6926 H   0  0  0  0  0  0  0  0  0  0  0  0
   -0.2810    4.3525    0.7045 C   0  0  0  0  0  0  0  0  0  0  0  0
    0.5502    4.1475    0.0134 H   0  0  0  0  0  0  0  0  0  0  0  0
    0.1721    4.6515    1.6563 H   0  0  0  0  0  0  0  0  0  0  0  0
   -0.8413    5.2082    0.3180 H   0  0  0  0  0  0  0  0  0  0  0  0
   -2.7090   -0.8785   -1.9390 C   0  0  0  0  0  0  0  0  0  0  0  0
   -2.0874   -1.4790   -1.2187 H   0  0  0  0  0  0  0  0  0  0  0  0
   -4.1906   -1.0672   -1.5754 C   0  0  0  0  0  0  0  0  0  0  0  0
   -4.3804   -0.7766   -0.5315 H   0  0  0  0  0  0  0  0  0  0  0  0
   -4.4907   -2.1142   -1.6918 H   0  0  0  0  0  0  0  0  0  0  0  0
   -4.8447   -0.4646   -2.2147 H   0  0  0  0  0  0  0  0  0  0  0  0
   -2.4110   -1.4195   -3.3411 C   0  0  0  0  0  0  0  0  0  0  0  0
   -3.0429   -0.9713   -4.1122 H   0  0  0  0  0  0  0  0  0  0  0  0
   -2.5576   -2.5057   -3.3761 H   0  0  0  0  0  0  0  0  0  0  0  0
   -1.3589   -1.2416   -3.6076 H   0  0  0  0  0  0  0  0  0  0  0  0
  1  2  1  0  0  0  0
  1  3  2  0  0  0  0
  3  4  1  0  0  0  0
  2  5  1  0  0  0  0
  5  6  1  0  0  0  0
  5  7  1  0  0  0  0
  7  8  1  0  0  0  0
  7  9  1  0  0  0  0
  7 10  1  0  0  0  0
  5 11  1  0  0  0  0
 11 12  1  0  0  0  0
 11 13  1  0  0  0  0
 11 14  1  0  0  0  0
  2 15  1  0  0  0  0
 15 24  1  0  0  0  0
 15 16  2  0  0  0  0
 16 17  1  0  0  0  0
 16 18  1  0  0  0  0
 18 19  1  0  0  0  0
 18 20  2  0  0  0  0
 20 21  1  0  0  0  0
 20 22  1  0  0  0  0
 22 24  2  0  0  0  0
 22 23  1  0  0  0  0
  3 24  1  0  0  0  0
  1 25  1  0  0  0  0
  1 26  1  0  0  0  0
 27 28  1  0  0  0  0
 27 31  1  0  0  0  0
 28 29  1  0  0  0  0
 29 32  1  0  0  0  0
 29 33  1  0  0  0  0
 29 30  1  0  0  0  0
 30 34  1  0  0  0  0
 30 35  1  0  0  0  0
 30 31  1  0  0  0  0
  1 27  1  0  0  0  0
 36 39  2  0  0  0  0
 36 38  1  0  0  0  0
 37 40  2  0  0  0  0
 37 41  1  0  0  0  0
 37 44  1  0  0  0  0
 38 41  2  0  0  0  0
 39 40  1  0  0  0  0
 40 42  1  0  0  0  0
 41 43  1  0  0  0  0
 28 36  1  0  0  0  0
 45 46  1  0  0  0  0
 45 47  1  0  0  0  0
 45 51  1  0  0  0  0
 47 48  1  0  0  0  0
 47 49  1  0  0  0  0
 47 50  1  0  0  0  0
 51 52  1  0  0  0  0
 51 53  1  0  0  0  0
 51 54  1  0  0  0  0
 38 45  1  0  0  0  0
 55 56  1  0  0  0  0
 55 57  1  0  0  0  0
 55 61  1  0  0  0  0
 57 58  1  0  0  0  0
 57 59  1  0  0  0  0
 57 60  1  0  0  0  0
 61 62  1  0  0  0  0
 61 63  1  0  0  0  0
 61 64  1  0  0  0  0
 39 55  1  0  0  0  0
 65 68  2  0  0  0  0
 65 67  1  0  0  0  0
 66 69  2  0  0  0  0
 66 70  1  0  0  0  0
 66 73  1  0  0  0  0
 67 70  2  0  0  0  0
 68 69  1  0  0  0  0
 69 71  1  0  0  0  0
 70 72  1  0  0  0  0
 31 65  1  0  0  0  0
 74 75  1  0  0  0  0
 74 76  1  0  0  0  0
 74 80  1  0  0  0  0
 76 77  1  0  0  0  0
 76 78  1  0  0  0  0
 76 79  1  0  0  0  0
 80 81  1  0  0  0  0
 80 82  1  0  0  0  0
 80 83  1  0  0  0  0
 67 74  1  0  0  0  0
 84 85  1  0  0  0  0
 84 86  1  0  0  0  0
 84 90  1  0  0  0  0
 86 87  1  0  0  0  0
 86 88  1  0  0  0  0
 86 89  1  0  0  0  0
 90 91  1  0  0  0  0
 90 92  1  0  0  0  0
 90 93  1  0  0  0  0
 68 84  1  0  0  0  0
M  END
> <FrozenCore-PM6_ENERGY>
-34.427

> <RMSD_CONF_CG-CS>
0.647141

> <RMSD_CONF_GO-CS>
0.000000

> <UID>


> <DESCRIPTOR_DEFINITION_1>
desc1=( echo "1 * ( e( $hartree_to_kcalmol * ( ( $freeEnergyZ - $freeEnergyD ) - ( $freeEnergyX + 2*$G_Ethene - $freeEnergyD - 2*$G_Propene ) - $DDG_reference_HGII ) / $kT ) ) " | bc -l )

> <DESCRIPTOR_DEFINITION_2>
desc1=( echo "1 * ( e( $hartree_to_kcalmol * ( ( $freeEnergyZ - $freeEnergyD ) - ( $freeEnergyX + 2*$G_Ethene - $freeEnergyD - 2*$G_Propene ) - $DDG_reference_HGII ) / $kT ) ) " | bc -l )

> <DESCRIPTOR_DEFINITION_3>
desc1=( echo "1 * ( e( $hartree_to_kcalmol * ( ( $freeEnergyZ - $freeEnergyD ) - ( $freeEnergyX + 2*$G_Ethene - $freeEnergyD - 2*$G_Propene ) - $DDG_reference_HGII ) / $kT ) ) " | bc -l )

> <WEIGHT_DEFINITION_1>
w1=$( echo "1 / ( 1 + e( $hartree_to_kcalmol * ( ( ( $freeEnergyX + 2*$G_Ethene - $freeEnergyD - 2*$G_Propene ) ) - ( $DG_referenceProductionBarrier + $magnitude4 ) ) / $kT ) )" | bc -l )

> <WEIGHT_DEFINITION_2>
w1=$( echo "1 / ( 1 + e( $hartree_to_kcalmol * ( ( ( $freeEnergyX + 2*$G_Ethene - $freeEnergyD - 2*$G_Propene ) ) - ( $DG_referenceProductionBarrier + $magnitude4 ) ) / $kT ) )" | bc -l )

> <WEIGHT_DEFINITION_3>
w1=$( echo "1 / ( 1 + e( $hartree_to_kcalmol * ( ( ( $freeEnergyX + 2*$G_Ethene - $freeEnergyD - 2*$G_Propene ) ) - ( $DG_referenceProductionBarrier + $magnitude4 ) ) / $kT ) )" | bc -l )

> <WEIGHT_DEFINITION_4>
w1=$( echo "1 / ( 1 + e( $hartree_to_kcalmol * ( ( ( $freeEnergyX + 2*$G_Ethene - $freeEnergyD - 2*$G_Propene ) ) - ( $DG_referenceProductionBarrier + $magnitude4 ) ) / $kT ) )" | bc -l )

> <CALCULATION_OF_OVERALL_FITNESS>
fitness=$( echo "( $desc1 + $desc2 + $desc3 ) * ( $w1 * $w2 * $w3 * $w4 )" | bc -l )

> <freeEnergyA>
-2637.69352671

> <freeEnergyF>
-2637.6704149

> <freeEnergyE>
-2637.69352671

> <freeEnergyC>
-2292.43654348

> <freeEnergyL>
-1159.82995464

> <freeEnergyX>
-2370.97341104

> <freeEnergyZ>
-2292.41906624

> <freeEnergyD>
-2292.46272903

> <G_Propene>
-117.738020895

> <G_Ethene>
-78.4716324751

> <G_HoveydaProd>
-502.204109499

> <G_SIMes>
-924.27249048

> <G_HG_RuCl2_SIMes>
-2402.13728523

> <DG_referenceProductionBarrier>
0.01468968

> <DG_referencePrecursorStabilityHII>
-0.0052201621

> <DG_referencePrecursorStabilityHI>
0.0117775312

> <DDG_referencePrecursorStability>
.0169976933

> <DG_referenceSynt>
0.0226072217

> <hartree_to_kcalmol>
627.49467516

> <boltzmann_constant>
0.0000000000000000000000138066

> <avogadro_number>
602214000000000000000000

> <jmol_to_kcalmol>
0.00023901

> <temp>
313.15

> <kT>
.6223089948281258706000000000

> <magnitude1>
1.43290809

> <magnitude2>
2.86581618

> <magnitude3>
4.29872427

> <magnitude4>
5.73163236

> <DFT_IDENTIFIER>
1723738147099

> <DFT_MACHINE>
158.39.114.73

> <XTB_IDENTIFIER>
NREC

> <XTB_MACHINE>
NREC

> <DESCRIPTOR_1>
.51229250221436150048

> <DESCRIPTOR_2>
13.533780179562808632

> <DESCRIPTOR_3>
.110812422159880200

> <WEIGHT_1>
.99991631224034815695

> <WEIGHT_2>
.99999998582427625202

> <WEIGHT_3>
.99999999995680531073

> <WEIGHT_4>
.99999999243146388496

> <FITNESS>
14.15570003752237688028

$$$$
