
  CDK     08152400013D

 85 88  0  0  0  0  0  0  0  0999 V2000
   -1.2338    3.5367   -1.7994 C   0  0  0  0  0  0  0  0  0  0  0  0
   -0.2934    3.6620   -2.3637 H   0  0  0  0  0  0  0  0  0  0  0  0
   -1.9202    4.3847   -2.0196 H   0  0  0  0  0  0  0  0  0  0  0  0
   -1.7397    2.6204   -2.1685 H   0  0  0  0  0  0  0  0  0  0  0  0
   -1.0000    3.4810   -0.3079 C   0  0  0  0  0  0  0  0  0  0  0  0
   -1.9120    3.4381    0.3167 H   0  0  0  0  0  0  0  0  0  0  0  0
    0.1416    4.0161    0.3483 C   0  0  0  0  0  0  0  0  0  0  0  0
    0.9899    4.3140   -0.2925 H   0  0  0  0  0  0  0  0  0  0  0  0
   -0.0097    4.6972    1.6894 C   0  0  0  0  0  0  0  0  0  0  0  0
    0.9552    4.8331    2.2134 H   0  0  0  0  0  0  0  0  0  0  0  0
   -0.4458    5.7061    1.5243 H   0  0  0  0  0  0  0  0  0  0  0  0
   -0.7017    4.1267    2.3398 H   0  0  0  0  0  0  0  0  0  0  0  0
    1.3252    2.2502    1.2790 C   0  0  0  0  0  0  0  0  0  0  0  0
    1.1103    2.3391    2.3652 H   0  0  0  0  0  0  0  0  0  0  0  0
    2.3476    2.5145    0.9310 H   0  0  0  0  0  0  0  0  0  0  0  0
    0.0675    1.6338    0.1027 Ru  0  0  0  0  0  0  0  0  0  0  0  0
   -1.4984    1.4117    1.9238 Cl  0  0  0  0  0  0  0  0  0  0  0  0
    1.6264    1.9535   -1.6880 Cl  0  0  0  0  0  0  0  0  0  0  0  0
    0.0160   -0.3580    0.0505 C   0  0  0  0  0  0  0  0  0  0  0  0
   -0.8766   -1.0366   -0.7237 N   0  0  0  0  0  0  0  0  0  0  0  0
   -1.0818   -2.4095   -0.2234 C   0  0  0  0  0  0  0  0  0  0  0  0
    0.1993   -2.6327    0.5842 C   0  0  0  0  0  0  0  0  0  0  0  0
    0.6220   -1.2456    0.8835 N   0  0  0  0  0  0  0  0  0  0  0  0
   -1.9870   -2.4497    0.4199 H   0  0  0  0  0  0  0  0  0  0  0  0
   -1.2078   -3.1236   -1.0578 H   0  0  0  0  0  0  0  0  0  0  0  0
    0.9853   -3.1492   -0.0080 H   0  0  0  0  0  0  0  0  0  0  0  0
    0.0269   -3.1990    1.5164 H   0  0  0  0  0  0  0  0  0  0  0  0
   -1.6027   -0.4387   -1.8111 C   0  0  0  0  0  0  0  0  0  0  0  0
   -2.9828    0.7045   -3.9520 C   0  0  0  0  0  0  0  0  0  0  0  0
   -0.9435   -0.3140   -3.0673 C   0  0  0  0  0  0  0  0  0  0  0  0
   -2.9436   -0.0186   -1.6186 C   0  0  0  0  0  0  0  0  0  0  0  0
   -3.6181    0.5504   -2.7168 C   0  0  0  0  0  0  0  0  0  0  0  0
   -1.6593    0.2778   -4.1220 C   0  0  0  0  0  0  0  0  0  0  0  0
   -4.6577    0.8843   -2.5928 H   0  0  0  0  0  0  0  0  0  0  0  0
   -1.1718    0.4045   -5.0972 H   0  0  0  0  0  0  0  0  0  0  0  0
   -3.5227    1.1620   -4.7942 H   0  0  0  0  0  0  0  0  0  0  0  0
    0.4676   -0.8465   -3.2861 C   0  0  0  0  0  0  0  0  0  0  0  0
    1.0364   -0.6478   -2.3567 H   0  0  0  0  0  0  0  0  0  0  0  0
    1.2188   -0.1466   -4.4242 C   0  0  0  0  0  0  0  0  0  0  0  0
    2.2756   -0.4805   -4.4304 H   0  0  0  0  0  0  0  0  0  0  0  0
    1.2134    0.9507   -4.2865 H   0  0  0  0  0  0  0  0  0  0  0  0
    0.7929   -0.3939   -5.4193 H   0  0  0  0  0  0  0  0  0  0  0  0
    0.4416   -2.3678   -3.5302 C   0  0  0  0  0  0  0  0  0  0  0  0
   -0.0353   -2.9215   -2.6987 H   0  0  0  0  0  0  0  0  0  0  0  0
    1.4740   -2.7574   -3.6460 H   0  0  0  0  0  0  0  0  0  0  0  0
   -0.1205   -2.6087   -4.4566 H   0  0  0  0  0  0  0  0  0  0  0  0
   -3.6724   -0.2134   -0.2977 C   0  0  0  0  0  0  0  0  0  0  0  0
   -2.9069   -0.3643    0.4895 H   0  0  0  0  0  0  0  0  0  0  0  0
   -4.4860    1.0203    0.1185 C   0  0  0  0  0  0  0  0  0  0  0  0
   -3.8482    1.9235    0.1481 H   0  0  0  0  0  0  0  0  0  0  0  0
   -4.8970    0.8730    1.1369 H   0  0  0  0  0  0  0  0  0  0  0  0
   -5.3416    1.2056   -0.5636 H   0  0  0  0  0  0  0  0  0  0  0  0
   -4.5787   -1.4575   -0.3739 C   0  0  0  0  0  0  0  0  0  0  0  0
   -4.0145   -2.3685   -0.6582 H   0  0  0  0  0  0  0  0  0  0  0  0
   -5.3773   -1.3167   -1.1321 H   0  0  0  0  0  0  0  0  0  0  0  0
   -5.0678   -1.6449    0.6040 H   0  0  0  0  0  0  0  0  0  0  0  0
    1.6833   -0.9508    1.8052 C   0  0  0  0  0  0  0  0  0  0  0  0
    3.7414   -0.4189    3.6205 C   0  0  0  0  0  0  0  0  0  0  0  0
    2.9909   -0.6925    1.3086 C   0  0  0  0  0  0  0  0  0  0  0  0
    1.3969   -0.9591    3.1942 C   0  0  0  0  0  0  0  0  0  0  0  0
    2.4523   -0.6927    4.0864 C   0  0  0  0  0  0  0  0  0  0  0  0
    4.0035   -0.4187    2.2456 C   0  0  0  0  0  0  0  0  0  0  0  0
    2.2527   -0.6922    5.1674 H   0  0  0  0  0  0  0  0  0  0  0  0
    5.0200   -0.2070    1.8878 H   0  0  0  0  0  0  0  0  0  0  0  0
    4.5509   -0.2050    4.3339 H   0  0  0  0  0  0  0  0  0  0  0  0
    3.3214   -0.7601   -0.1764 C   0  0  0  0  0  0  0  0  0  0  0  0
    2.4090   -0.4784   -0.7378 H   0  0  0  0  0  0  0  0  0  0  0  0
    3.7240   -2.1944   -0.5720 C   0  0  0  0  0  0  0  0  0  0  0  0
    2.9530   -2.9406   -0.2964 H   0  0  0  0  0  0  0  0  0  0  0  0
    4.6649   -2.4917   -0.0631 H   0  0  0  0  0  0  0  0  0  0  0  0
    3.8907   -2.2630   -1.6669 H   0  0  0  0  0  0  0  0  0  0  0  0
    4.4153    0.2261   -0.6048 C   0  0  0  0  0  0  0  0  0  0  0  0
    4.1713    1.2591   -0.2935 H   0  0  0  0  0  0  0  0  0  0  0  0
    4.4973    0.2312   -1.7093 H   0  0  0  0  0  0  0  0  0  0  0  0
    5.4101   -0.0505   -0.1970 H   0  0  0  0  0  0  0  0  0  0  0  0
    0.0117   -1.2777    3.7394 C   0  0  0  0  0  0  0  0  0  0  0  0
   -0.7013   -1.1981    2.8946 H   0  0  0  0  0  0  0  0  0  0  0  0
   -0.0253   -2.7098    4.3075 C   0  0  0  0  0  0  0  0  0  0  0  0
    0.3015   -3.4678    3.5664 H   0  0  0  0  0  0  0  0  0  0  0  0
   -1.0499   -2.9728    4.6417 H   0  0  0  0  0  0  0  0  0  0  0  0
    0.6504   -2.8029    5.1835 H   0  0  0  0  0  0  0  0  0  0  0  0
   -0.4459   -0.2699    4.8047 C   0  0  0  0  0  0  0  0  0  0  0  0
    0.1805   -0.3220    5.7194 H   0  0  0  0  0  0  0  0  0  0  0  0
   -1.4900   -0.4891    5.1069 H   0  0  0  0  0  0  0  0  0  0  0  0
   -0.4216    0.7608    4.4044 H   0  0  0  0  0  0  0  0  0  0  0  0
  1  2  1  0  0  0  0
  1  5  1  0  0  0  0
  3  1  1  0  0  0  0
  4  1  1  0  0  0  0
  5  6  1  0  0  0  0
  5 16  1  0  0  0  0
  5  7  1  0  0  0  0
  7  9  1  0  0  0  0
  7  8  1  0  0  0  0
  9 10  1  0  0  0  0
 11  9  1  0  0  0  0
 12  9  1  0  0  0  0
 13 14  1  0  0  0  0
 13 15  1  0  0  0  0
 13  7  1  0  0  0  0
 16 13  1  0  0  0  0
 16 17  1  0  0  0  0
 16 18  1  0  0  0  0
 19 20  1  0  0  0  0
 19 23  1  0  0  0  0
 20 21  1  0  0  0  0
 21 24  1  0  0  0  0
 21 25  1  0  0  0  0
 21 22  1  0  0  0  0
 22 26  1  0  0  0  0
 22 27  1  0  0  0  0
 22 23  1  0  0  0  0
 28 31  2  0  0  0  0
 28 30  1  0  0  0  0
 29 32  2  0  0  0  0
 29 33  1  0  0  0  0
 29 36  1  0  0  0  0
 30 33  2  0  0  0  0
 31 32  1  0  0  0  0
 32 34  1  0  0  0  0
 33 35  1  0  0  0  0
 20 28  1  0  0  0  0
 37 38  1  0  0  0  0
 37 39  1  0  0  0  0
 37 43  1  0  0  0  0
 39 40  1  0  0  0  0
 39 41  1  0  0  0  0
 39 42  1  0  0  0  0
 43 44  1  0  0  0  0
 43 45  1  0  0  0  0
 43 46  1  0  0  0  0
 30 37  1  0  0  0  0
 47 48  1  0  0  0  0
 47 49  1  0  0  0  0
 47 53  1  0  0  0  0
 49 50  1  0  0  0  0
 49 51  1  0  0  0  0
 49 52  1  0  0  0  0
 53 54  1  0  0  0  0
 53 55  1  0  0  0  0
 53 56  1  0  0  0  0
 31 47  1  0  0  0  0
 57 60  2  0  0  0  0
 57 59  1  0  0  0  0
 58 61  2  0  0  0  0
 58 62  1  0  0  0  0
 58 65  1  0  0  0  0
 59 62  2  0  0  0  0
 60 61  1  0  0  0  0
 61 63  1  0  0  0  0
 62 64  1  0  0  0  0
 23 57  1  0  0  0  0
 66 67  1  0  0  0  0
 66 68  1  0  0  0  0
 66 72  1  0  0  0  0
 68 69  1  0  0  0  0
 68 70  1  0  0  0  0
 68 71  1  0  0  0  0
 72 73  1  0  0  0  0
 72 74  1  0  0  0  0
 72 75  1  0  0  0  0
 59 66  1  0  0  0  0
 76 77  1  0  0  0  0
 76 78  1  0  0  0  0
 76 82  1  0  0  0  0
 78 79  1  0  0  0  0
 78 80  1  0  0  0  0
 78 81  1  0  0  0  0
 82 83  1  0  0  0  0
 82 84  1  0  0  0  0
 82 85  1  0  0  0  0
 60 76  1  0  0  0  0
 16 19  1  0  0  0  0
M  END
>  <DFT-ENERGY>
-2370.97341116

$$$$
