
  CDK     08152410133D

 79 83  0  0  0  0  0  0  0  0999 V2000
   -1.2488    3.1402   -1.3720 H   0  0  0  0  0  0  0  0  0  0  0  0
   -2.4521    3.0460   -1.6115 C   0  0  0  0  0  0  0  0  0  0  0  0
   -2.4725    4.1199   -1.8933 H   0  0  0  0  0  0  0  0  0  0  0  0
   -2.9380    2.5418   -0.2942 C   0  0  0  0  0  0  0  0  0  0  0  0
   -3.8438    1.9152   -0.2854 H   0  0  0  0  0  0  0  0  0  0  0  0
   -2.8133    3.2213    0.5657 H   0  0  0  0  0  0  0  0  0  0  0  0
   -1.2559    1.4506   -0.8319 Ru  0  0  0  0  0  0  0  0  0  0  0  0
   -2.3400    1.9487   -2.5947 C   0  0  0  0  0  0  0  0  0  0  0  0
   -3.1919    1.2712   -2.7352 H   0  0  0  0  0  0  0  0  0  0  0  0
   -1.7159    2.1326   -3.4864 H   0  0  0  0  0  0  0  0  0  0  0  0
   -2.7606   -0.4547   -1.0040 Cl  0  0  0  0  0  0  0  0  0  0  0  0
    0.1391    2.9029    0.4394 Cl  0  0  0  0  0  0  0  0  0  0  0  0
   -0.2095   -0.0799    0.0466 C   0  0  0  0  0  0  0  0  0  0  0  0
    0.0833   -0.4380    1.3165 N   0  0  0  0  0  0  0  0  0  0  0  0
    0.7840   -1.7437    1.3425 C   0  0  0  0  0  0  0  0  0  0  0  0
    1.3064   -1.8715   -0.0927 C   0  0  0  0  0  0  0  0  0  0  0  0
    0.4234   -0.9286   -0.8056 N   0  0  0  0  0  0  0  0  0  0  0  0
    1.5853   -1.7459    2.1016 H   0  0  0  0  0  0  0  0  0  0  0  0
    0.0507   -2.5399    1.5955 H   0  0  0  0  0  0  0  0  0  0  0  0
    1.2081   -2.8950   -0.4971 H   0  0  0  0  0  0  0  0  0  0  0  0
    2.3661   -1.5498   -0.1886 H   0  0  0  0  0  0  0  0  0  0  0  0
   -0.2456    0.2501    2.5369 C   0  0  0  0  0  0  0  0  0  0  0  0
   -0.8203    1.5539    4.9377 C   0  0  0  0  0  0  0  0  0  0  0  0
   -1.5447    0.1342    3.0842 C   0  0  0  0  0  0  0  0  0  0  0  0
    0.7849    0.9784    3.1884 C   0  0  0  0  0  0  0  0  0  0  0  0
    0.4677    1.6250    4.3949 C   0  0  0  0  0  0  0  0  0  0  0  0
   -1.8111    0.8109    4.2897 C   0  0  0  0  0  0  0  0  0  0  0  0
    1.2448    2.2034    4.9143 H   0  0  0  0  0  0  0  0  0  0  0  0
   -2.8162    0.7421    4.7295 H   0  0  0  0  0  0  0  0  0  0  0  0
   -1.0496    2.0761    5.8782 H   0  0  0  0  0  0  0  0  0  0  0  0
   -2.6113   -0.7454    2.4545 C   0  0  0  0  0  0  0  0  0  0  0  0
   -2.3059   -0.9710    1.4155 H   0  0  0  0  0  0  0  0  0  0  0  0
   -3.9743   -0.0464    2.3635 C   0  0  0  0  0  0  0  0  0  0  0  0
   -4.6773   -0.6660    1.7725 H   0  0  0  0  0  0  0  0  0  0  0  0
   -3.8797    0.9323    1.8564 H   0  0  0  0  0  0  0  0  0  0  0  0
   -4.4277    0.1196    3.3633 H   0  0  0  0  0  0  0  0  0  0  0  0
   -2.7226   -2.0738    3.2261 C   0  0  0  0  0  0  0  0  0  0  0  0
   -1.7508   -2.6078    3.2663 H   0  0  0  0  0  0  0  0  0  0  0  0
   -3.4630   -2.7434    2.7421 H   0  0  0  0  0  0  0  0  0  0  0  0
   -3.0489   -1.9036    4.2738 H   0  0  0  0  0  0  0  0  0  0  0  0
    2.2137    1.0319    2.6600 C   0  0  0  0  0  0  0  0  0  0  0  0
    2.1944    0.6731    1.6103 H   0  0  0  0  0  0  0  0  0  0  0  0
    2.8018    2.4515    2.6444 C   0  0  0  0  0  0  0  0  0  0  0  0
    2.1574    3.1423    2.0707 H   0  0  0  0  0  0  0  0  0  0  0  0
    3.8070    2.4387    2.1750 H   0  0  0  0  0  0  0  0  0  0  0  0
    2.9268    2.8531    3.6711 H   0  0  0  0  0  0  0  0  0  0  0  0
    3.1253    0.1016    3.4862 C   0  0  0  0  0  0  0  0  0  0  0  0
    2.7393   -0.9367    3.5399 H   0  0  0  0  0  0  0  0  0  0  0  0
    3.2080    0.4677    4.5306 H   0  0  0  0  0  0  0  0  0  0  0  0
    4.1481    0.0687    3.0573 H   0  0  0  0  0  0  0  0  0  0  0  0
    0.4449   -0.6600   -2.2196 C   0  0  0  0  0  0  0  0  0  0  0  0
    0.2949   -0.0192   -4.9316 C   0  0  0  0  0  0  0  0  0  0  0  0
   -0.2694   -1.5232   -3.0911 C   0  0  0  0  0  0  0  0  0  0  0  0
    1.1630    0.4734   -2.6983 C   0  0  0  0  0  0  0  0  0  0  0  0
    1.0473    0.7829   -4.0689 C   0  0  0  0  0  0  0  0  0  0  0  0
   -0.3322   -1.1751   -4.4503 C   0  0  0  0  0  0  0  0  0  0  0  0
    1.5754    1.6603   -4.4654 H   0  0  0  0  0  0  0  0  0  0  0  0
   -0.8960   -1.8155   -5.1425 H   0  0  0  0  0  0  0  0  0  0  0  0
    0.2144    0.2455   -5.9963 H   0  0  0  0  0  0  0  0  0  0  0  0
   -0.8990   -2.8177   -2.5981 C   0  0  0  0  0  0  0  0  0  0  0  0
   -1.0516   -2.7059   -1.5059 H   0  0  0  0  0  0  0  0  0  0  0  0
    0.0628   -3.9943   -2.8622 C   0  0  0  0  0  0  0  0  0  0  0  0
    1.0674   -3.8247   -2.4241 H   0  0  0  0  0  0  0  0  0  0  0  0
    0.2066   -4.1432   -3.9529 H   0  0  0  0  0  0  0  0  0  0  0  0
   -0.3448   -4.9367   -2.4421 H   0  0  0  0  0  0  0  0  0  0  0  0
   -2.2716   -3.1036   -3.2224 C   0  0  0  0  0  0  0  0  0  0  0  0
   -2.9543   -2.2464   -3.0735 H   0  0  0  0  0  0  0  0  0  0  0  0
   -2.7239   -3.9963   -2.7452 H   0  0  0  0  0  0  0  0  0  0  0  0
   -2.1950   -3.3204   -4.3082 H   0  0  0  0  0  0  0  0  0  0  0  0
    2.1656    1.2332   -1.8348 C   0  0  0  0  0  0  0  0  0  0  0  0
    1.8262    1.1994   -0.7811 H   0  0  0  0  0  0  0  0  0  0  0  0
    3.5410    0.5403   -1.9275 C   0  0  0  0  0  0  0  0  0  0  0  0
    3.4885   -0.5317   -1.6511 H   0  0  0  0  0  0  0  0  0  0  0  0
    4.2715    1.0357   -1.2552 H   0  0  0  0  0  0  0  0  0  0  0  0
    3.9370    0.5924   -2.9631 H   0  0  0  0  0  0  0  0  0  0  0  0
    2.3000    2.7149   -2.2073 C   0  0  0  0  0  0  0  0  0  0  0  0
    2.7923    2.8515   -3.1926 H   0  0  0  0  0  0  0  0  0  0  0  0
    2.9192    3.2361   -1.4516 H   0  0  0  0  0  0  0  0  0  0  0  0
    1.3127    3.2135   -2.2262 H   0  0  0  0  0  0  0  0  0  0  0  0
  1  2  1  0  0  0  0
  1  7  1  0  0  0  0
  2  3  1  0  0  0  0
  2  4  1  0  0  0  0
  4  5  1  0  0  0  0
  6  4  1  0  0  0  0
  7  8  1  0  0  0  0
  7  4  1  0  0  0  0
  8  2  1  0  0  0  0
  8  9  1  0  0  0  0
 10  8  1  0  0  0  0
  7 11  1  0  0  0  0
  7 12  1  0  0  0  0
 13 14  1  0  0  0  0
 13 17  1  0  0  0  0
 14 15  1  0  0  0  0
 15 18  1  0  0  0  0
 15 19  1  0  0  0  0
 15 16  1  0  0  0  0
 16 20  1  0  0  0  0
 16 21  1  0  0  0  0
 16 17  1  0  0  0  0
 22 25  2  0  0  0  0
 22 24  1  0  0  0  0
 23 26  2  0  0  0  0
 23 27  1  0  0  0  0
 23 30  1  0  0  0  0
 24 27  2  0  0  0  0
 25 26  1  0  0  0  0
 26 28  1  0  0  0  0
 27 29  1  0  0  0  0
 14 22  1  0  0  0  0
 31 32  1  0  0  0  0
 31 33  1  0  0  0  0
 31 37  1  0  0  0  0
 33 34  1  0  0  0  0
 33 35  1  0  0  0  0
 33 36  1  0  0  0  0
 37 38  1  0  0  0  0
 37 39  1  0  0  0  0
 37 40  1  0  0  0  0
 24 31  1  0  0  0  0
 41 42  1  0  0  0  0
 41 43  1  0  0  0  0
 41 47  1  0  0  0  0
 43 44  1  0  0  0  0
 43 45  1  0  0  0  0
 43 46  1  0  0  0  0
 47 48  1  0  0  0  0
 47 49  1  0  0  0  0
 47 50  1  0  0  0  0
 25 41  1  0  0  0  0
 51 54  2  0  0  0  0
 51 53  1  0  0  0  0
 52 55  2  0  0  0  0
 52 56  1  0  0  0  0
 52 59  1  0  0  0  0
 53 56  2  0  0  0  0
 54 55  1  0  0  0  0
 55 57  1  0  0  0  0
 56 58  1  0  0  0  0
 17 51  1  0  0  0  0
 60 61  1  0  0  0  0
 60 62  1  0  0  0  0
 60 66  1  0  0  0  0
 62 63  1  0  0  0  0
 62 64  1  0  0  0  0
 62 65  1  0  0  0  0
 66 67  1  0  0  0  0
 66 68  1  0  0  0  0
 66 69  1  0  0  0  0
 53 60  1  0  0  0  0
 70 71  1  0  0  0  0
 70 72  1  0  0  0  0
 70 76  1  0  0  0  0
 72 73  1  0  0  0  0
 72 74  1  0  0  0  0
 72 75  1  0  0  0  0
 76 77  1  0  0  0  0
 76 78  1  0  0  0  0
 76 79  1  0  0  0  0
 54 70  1  0  0  0  0
  7 13  1  0  0  0  0
M  END
>  <DFT-ENERGY>
-2292.41906572

$$$$
