
  CDK     08132416443D

 55 59  0  0  0  0  0  0  0  0999 V2000
    1.9782    0.7349   -2.6303 H   0  0  0  0  0  0  0  0  0  0  0  0
    3.1061    1.2254   -2.5927 C   0  0  0  0  0  0  0  0  0  0  0  0
    3.0904    1.2785   -3.7048 H   0  0  0  0  0  0  0  0  0  0  0  0
    2.9311    2.4031   -1.6953 C   0  0  0  0  0  0  0  0  0  0  0  0
    3.8053    2.7123   -1.0977 H   0  0  0  0  0  0  0  0  0  0  0  0
    2.3104    3.2302   -2.0767 H   0  0  0  0  0  0  0  0  0  0  0  0
    1.9298    0.7833   -0.8579 Ru  0  0  0  0  0  0  0  0  0  0  0  0
    3.7572    0.1410   -1.8581 C   0  0  0  0  0  0  0  0  0  0  0  0
    4.6014    0.3830   -1.2010 H   0  0  0  0  0  0  0  0  0  0  0  0
    3.7577   -0.8702   -2.2990 H   0  0  0  0  0  0  0  0  0  0  0  0
    3.4484    0.5282    1.0568 Cl  0  0  0  0  0  0  0  0  0  0  0  0
   -0.1188    1.5897   -1.8180 Cl  0  0  0  0  0  0  0  0  0  0  0  0
    0.8034    1.1642    0.7992 C   0  0  0  0  0  0  0  0  0  0  0  0
    0.8031    2.2318    1.6079 N   0  0  0  0  0  0  0  0  0  0  0  0
   -0.0203    1.9855    2.8367 C   0  0  0  0  0  0  0  0  0  0  0  0
   -1.0356    0.9213    2.2557 C   0  0  0  0  0  0  0  0  0  0  0  0
   -0.1505    0.2816    1.2221 N   0  0  0  0  0  0  0  0  0  0  0  0
    1.5629    3.4179    1.3601 C   0  0  0  0  0  0  0  0  0  0  0  0
    2.9649    5.7905    0.8618 C   0  0  0  0  0  0  0  0  0  0  0  0
    1.1054    4.3037    0.3703 C   0  0  0  0  0  0  0  0  0  0  0  0
    2.7292    3.7013    2.0890 C   0  0  0  0  0  0  0  0  0  0  0  0
    3.4221    4.8956    1.8411 C   0  0  0  0  0  0  0  0  0  0  0  0
    1.8114    5.4882    0.1209 C   0  0  0  0  0  0  0  0  0  0  0  0
    4.3387    5.1169    2.4065 H   0  0  0  0  0  0  0  0  0  0  0  0
    1.4581    6.1772   -0.6597 H   0  0  0  0  0  0  0  0  0  0  0  0
   -0.4015   -0.8824    0.4636 C   0  0  0  0  0  0  0  0  0  0  0  0
   -0.8067   -3.0929   -1.2607 C   0  0  0  0  0  0  0  0  0  0  0  0
    0.6461   -1.3589   -0.3637 C   0  0  0  0  0  0  0  0  0  0  0  0
   -1.6439   -1.5441    0.4332 C   0  0  0  0  0  0  0  0  0  0  0  0
   -1.8348   -2.6405   -0.4208 C   0  0  0  0  0  0  0  0  0  0  0  0
    0.4370   -2.4482   -1.2195 C   0  0  0  0  0  0  0  0  0  0  0  0
    1.7149   -1.0462   -0.1736 H   0  0  0  0  0  0  0  0  0  0  0  0
   -2.4832   -1.1976    1.0446 H   0  0  0  0  0  0  0  0  0  0  0  0
   -2.8159   -3.1367   -0.4345 H   0  0  0  0  0  0  0  0  0  0  0  0
    1.2708   -2.7980   -1.8447 H   0  0  0  0  0  0  0  0  0  0  0  0
   -0.9711   -3.9471   -1.9320 H   0  0  0  0  0  0  0  0  0  0  0  0
    3.1115    2.9671    2.8074 H   0  0  0  0  0  0  0  0  0  0  0  0
    0.2187    4.0291   -0.2175 H   0  0  0  0  0  0  0  0  0  0  0  0
    3.5162    6.7220    0.6676 H   0  0  0  0  0  0  0  0  0  0  0  0
   -0.6766    3.2692    3.3361 C   0  0  0  0  0  0  0  0  0  0  0  0
   -1.3785    3.0397    4.1625 H   0  0  0  0  0  0  0  0  0  0  0  0
   -1.2264    3.8003    2.5388 H   0  0  0  0  0  0  0  0  0  0  0  0
    0.0958    3.9573    3.7299 H   0  0  0  0  0  0  0  0  0  0  0  0
    0.9013    1.3957    3.9168 C   0  0  0  0  0  0  0  0  0  0  0  0
    0.3312    1.1265    4.8264 H   0  0  0  0  0  0  0  0  0  0  0  0
    1.6541    2.1511    4.2101 H   0  0  0  0  0  0  0  0  0  0  0  0
    1.4404    0.5051    3.5401 H   0  0  0  0  0  0  0  0  0  0  0  0
   -2.2106    1.5978    1.5294 C   0  0  0  0  0  0  0  0  0  0  0  0
   -1.8448    2.3282    0.7825 H   0  0  0  0  0  0  0  0  0  0  0  0
   -2.8734    2.1117    2.2514 H   0  0  0  0  0  0  0  0  0  0  0  0
   -2.8145    0.8499    0.9847 H   0  0  0  0  0  0  0  0  0  0  0  0
   -1.5198   -0.0559    3.3275 C   0  0  0  0  0  0  0  0  0  0  0  0
   -1.9036    0.5148    4.1966 H   0  0  0  0  0  0  0  0  0  0  0  0
   -0.7099   -0.7222    3.6752 H   0  0  0  0  0  0  0  0  0  0  0  0
   -2.3504   -0.6867    2.9641 H   0  0  0  0  0  0  0  0  0  0  0  0
  1  2  1  0  0  0  0
  1  7  1  0  0  0  0
  2  3  1  0  0  0  0
  2  4  1  0  0  0  0
  4  5  1  0  0  0  0
  4  6  1  0  0  0  0
  7  8  1  0  0  0  0
  4  7  1  0  0  0  0
  2  8  1  0  0  0  0
  8  9  1  0  0  0  0
  8 10  1  0  0  0  0
  7 11  1  0  0  0  0
  7 12  1  0  0  0  0
 13 14  1  0  0  0  0
 13 17  1  0  0  0  0
 14 15  1  0  0  0  0
 14 18  1  0  0  0  0
 15 40  1  0  0  0  0
 15 44  1  0  0  0  0
 16 17  1  0  0  0  0
 15 16  1  0  0  0  0
 16 48  1  0  0  0  0
 16 52  1  0  0  0  0
 17 26  1  0  0  0  0
 18 21  2  0  0  0  0
 18 20  1  0  0  0  0
 19 22  2  0  0  0  0
 19 23  1  0  0  0  0
 19 39  1  0  0  0  0
 20 23  2  0  0  0  0
 20 38  1  0  0  0  0
 21 22  1  0  0  0  0
 21 37  1  0  0  0  0
 22 24  1  0  0  0  0
 23 25  1  0  0  0  0
 26 29  2  0  0  0  0
 26 28  1  0  0  0  0
 27 30  2  0  0  0  0
 27 31  1  0  0  0  0
 27 36  1  0  0  0  0
 28 31  2  0  0  0  0
 28 32  1  0  0  0  0
 29 30  1  0  0  0  0
 29 33  1  0  0  0  0
 30 34  1  0  0  0  0
 31 35  1  0  0  0  0
 40 41  1  0  0  0  0
 40 42  1  0  0  0  0
 40 43  1  0  0  0  0
 44 45  1  0  0  0  0
 44 46  1  0  0  0  0
 44 47  1  0  0  0  0
 48 49  1  0  0  0  0
 48 50  1  0  0  0  0
 48 51  1  0  0  0  0
 52 53  1  0  0  0  0
 52 54  1  0  0  0  0
 52 55  1  0  0  0  0
  7 13  1  0  0  0  0
M  END
>  <DFT-ENERGY>
-1978.33235241

$$$$
