
  CDK     08132419073D

 55 58  0  0  0  0  0  0  0  0999 V2000
    1.7635   -1.0703   -0.2580 Ru  0  0  0  0  0  0  0  0  0  0  0  0
    3.2757   -0.8515   -1.4826 C   0  0  0  0  0  0  0  0  0  0  0  0
    3.0911   -1.1911   -2.5174 H   0  0  0  0  0  0  0  0  0  0  0  0
    3.7970   -2.0028   -0.5318 C   0  0  0  0  0  0  0  0  0  0  0  0
    3.9375   -2.9033   -1.1565 H   0  0  0  0  0  0  0  0  0  0  0  0
    2.8511   -2.4099    0.6699 C   0  0  0  0  0  0  0  0  0  0  0  0
    3.2416   -2.1051    1.6569 H   0  0  0  0  0  0  0  0  0  0  0  0
    2.4773   -3.4468    0.5937 H   0  0  0  0  0  0  0  0  0  0  0  0
    4.7251   -1.6198   -0.0702 H   0  0  0  0  0  0  0  0  0  0  0  0
    3.8365    0.0940   -1.3742 H   0  0  0  0  0  0  0  0  0  0  0  0
    0.8313   -2.7451   -1.7035 Cl  0  0  0  0  0  0  0  0  0  0  0  0
    2.6930    0.6254    1.1599 Cl  0  0  0  0  0  0  0  0  0  0  0  0
    0.0579   -0.1202    0.0268 C   0  0  0  0  0  0  0  0  0  0  0  0
   -0.3033    0.9041   -0.7718 N   0  0  0  0  0  0  0  0  0  0  0  0
   -1.6919    1.3666   -0.4534 C   0  0  0  0  0  0  0  0  0  0  0  0
   -1.7316    0.9768    1.0763 C   0  0  0  0  0  0  0  0  0  0  0  0
   -0.8313   -0.2312    1.0439 N   0  0  0  0  0  0  0  0  0  0  0  0
    0.4436    1.2320   -1.9490 C   0  0  0  0  0  0  0  0  0  0  0  0
    1.9843    1.8415   -4.2025 C   0  0  0  0  0  0  0  0  0  0  0  0
    0.3483    0.4226   -3.0953 C   0  0  0  0  0  0  0  0  0  0  0  0
    1.3184    2.3317   -1.9168 C   0  0  0  0  0  0  0  0  0  0  0  0
    2.0852    2.6366   -3.0489 C   0  0  0  0  0  0  0  0  0  0  0  0
    1.1222    0.7344   -4.2224 C   0  0  0  0  0  0  0  0  0  0  0  0
    2.7791    3.4888   -3.0235 H   0  0  0  0  0  0  0  0  0  0  0  0
    1.0609    0.0953   -5.1146 H   0  0  0  0  0  0  0  0  0  0  0  0
   -0.7699   -1.2902    1.9926 C   0  0  0  0  0  0  0  0  0  0  0  0
   -0.5786   -3.4468    3.7948 C   0  0  0  0  0  0  0  0  0  0  0  0
   -0.8781   -1.0648    3.3781 C   0  0  0  0  0  0  0  0  0  0  0  0
   -0.5779   -2.6012    1.5109 C   0  0  0  0  0  0  0  0  0  0  0  0
   -0.4639   -3.6662    2.4140 C   0  0  0  0  0  0  0  0  0  0  0  0
   -0.7945   -2.1440    4.2686 C   0  0  0  0  0  0  0  0  0  0  0  0
   -0.9959   -0.0479    3.7696 H   0  0  0  0  0  0  0  0  0  0  0  0
   -0.5125   -2.7808    0.4269 H   0  0  0  0  0  0  0  0  0  0  0  0
   -0.3013   -4.6810    2.0232 H   0  0  0  0  0  0  0  0  0  0  0  0
   -0.8774   -1.9554    5.3486 H   0  0  0  0  0  0  0  0  0  0  0  0
   -0.5016   -4.2863    4.5002 H   0  0  0  0  0  0  0  0  0  0  0  0
    1.4205    2.9044   -0.9859 H   0  0  0  0  0  0  0  0  0  0  0  0
   -0.2853   -0.4734   -3.0730 H   0  0  0  0  0  0  0  0  0  0  0  0
    2.5939    2.0786   -5.0866 H   0  0  0  0  0  0  0  0  0  0  0  0
   -2.6761    0.5500   -1.3062 C   0  0  0  0  0  0  0  0  0  0  0  0
   -3.7233    0.8540   -1.1140 H   0  0  0  0  0  0  0  0  0  0  0  0
   -2.5736   -0.5347   -1.1085 H   0  0  0  0  0  0  0  0  0  0  0  0
   -2.4649    0.7258   -2.3790 H   0  0  0  0  0  0  0  0  0  0  0  0
   -1.8580    2.8563   -0.7382 C   0  0  0  0  0  0  0  0  0  0  0  0
   -2.8518    3.2011   -0.3894 H   0  0  0  0  0  0  0  0  0  0  0  0
   -1.8024    3.0376   -1.8291 H   0  0  0  0  0  0  0  0  0  0  0  0
   -1.0786    3.4692   -0.2522 H   0  0  0  0  0  0  0  0  0  0  0  0
   -3.1290    0.6301    1.5809 C   0  0  0  0  0  0  0  0  0  0  0  0
   -3.5569   -0.2423    1.0549 H   0  0  0  0  0  0  0  0  0  0  0  0
   -3.8026    1.4981    1.4365 H   0  0  0  0  0  0  0  0  0  0  0  0
   -3.1099    0.3975    2.6620 H   0  0  0  0  0  0  0  0  0  0  0  0
   -1.0723    2.0629    1.9443 C   0  0  0  0  0  0  0  0  0  0  0  0
   -1.6585    3.0013    1.9122 H   0  0  0  0  0  0  0  0  0  0  0  0
   -0.0353    2.2601    1.6087 H   0  0  0  0  0  0  0  0  0  0  0  0
   -1.0254    1.7416    3.0004 H   0  0  0  0  0  0  0  0  0  0  0  0
  2  4  1  0  0  0  0
  2  1  1  0  0  0  0
  2  3  1  0  0  0  0
  4  6  1  0  0  0  0
  4  5  1  0  0  0  0
  6  1  1  0  0  0  0
  6  8  1  0  0  0  0
  7  6  1  0  0  0  0
  9  4  1  0  0  0  0
 10  2  1  0  0  0  0
  1 11  1  0  0  0  0
  1 12  1  0  0  0  0
 13 14  1  0  0  0  0
 13 17  1  0  0  0  0
 14 15  1  0  0  0  0
 14 18  1  0  0  0  0
 15 40  1  0  0  0  0
 15 44  1  0  0  0  0
 16 17  1  0  0  0  0
 15 16  1  0  0  0  0
 16 48  1  0  0  0  0
 16 52  1  0  0  0  0
 17 26  1  0  0  0  0
 18 21  2  0  0  0  0
 18 20  1  0  0  0  0
 19 22  2  0  0  0  0
 19 23  1  0  0  0  0
 19 39  1  0  0  0  0
 20 23  2  0  0  0  0
 20 38  1  0  0  0  0
 21 22  1  0  0  0  0
 21 37  1  0  0  0  0
 22 24  1  0  0  0  0
 23 25  1  0  0  0  0
 26 29  2  0  0  0  0
 26 28  1  0  0  0  0
 27 30  2  0  0  0  0
 27 31  1  0  0  0  0
 27 36  1  0  0  0  0
 28 31  2  0  0  0  0
 28 32  1  0  0  0  0
 29 30  1  0  0  0  0
 29 33  1  0  0  0  0
 30 34  1  0  0  0  0
 31 35  1  0  0  0  0
 40 41  1  0  0  0  0
 40 42  1  0  0  0  0
 40 43  1  0  0  0  0
 44 45  1  0  0  0  0
 44 46  1  0  0  0  0
 44 47  1  0  0  0  0
 48 49  1  0  0  0  0
 48 50  1  0  0  0  0
 48 51  1  0  0  0  0
 52 53  1  0  0  0  0
 52 54  1  0  0  0  0
 52 55  1  0  0  0  0
  1 13  1  0  0  0  0
M  END
>  <DFT-ENERGY>
-1978.36672365

$$$$
