DFP-4_A2
  CDK     08122412113D

 57 61  0  0  0  0  0  0  0  0999 V2000
    0.1645   -0.1323   -0.3073 Ru  0  0  0  0  0  0  0  0  0  0  0  0
    1.9423   -0.1323   -1.6965 O   0  0  0  0  0  0  0  0  0  0  0  0
    1.3747    0.8010    0.6968 C   0  0  0  0  0  0  0  0  0  0  0  0
    1.1419    1.0939    1.7195 H   0  0  0  0  0  0  0  0  0  0  0  0
    2.1778   -0.9075   -2.9223 C   0  0  0  0  0  0  0  0  0  0  0  0
    2.5868   -0.2077   -3.6814 H   0  0  0  0  0  0  0  0  0  0  0  0
    0.7553   -1.3485   -3.2377 C   0  0  0  0  0  0  0  0  0  0  0  0
    0.6860   -1.8455   -4.2084 H   0  0  0  0  0  0  0  0  0  0  0  0
    0.3738   -2.0476   -2.4658 H   0  0  0  0  0  0  0  0  0  0  0  0
    0.0704   -0.4752   -3.2465 H   0  0  0  0  0  0  0  0  0  0  0  0
    3.1150   -2.0533   -2.5876 C   0  0  0  0  0  0  0  0  0  0  0  0
    3.1086   -2.8271   -3.3615 H   0  0  0  0  0  0  0  0  0  0  0  0
    4.1492   -1.7256   -2.4390 H   0  0  0  0  0  0  0  0  0  0  0  0
    2.7971   -2.5354   -1.6409 H   0  0  0  0  0  0  0  0  0  0  0  0
    2.9345    0.6661   -1.1915 C   0  0  0  0  0  0  0  0  0  0  0  0
    4.1036    1.0148   -1.8445 C   0  0  0  0  0  0  0  0  0  0  0  0
    4.3227    0.6647   -2.8506 H   0  0  0  0  0  0  0  0  0  0  0  0
    5.0048    1.8459   -1.1870 C   0  0  0  0  0  0  0  0  0  0  0  0
    5.9273    2.1336   -1.6959 H   0  0  0  0  0  0  0  0  0  0  0  0
    4.7548    2.3175    0.0983 C   0  0  0  0  0  0  0  0  0  0  0  0
    5.4798    2.9620    0.5925 H   0  0  0  0  0  0  0  0  0  0  0  0
    3.5851    1.9572    0.7399 C   0  0  0  0  0  0  0  0  0  0  0  0
    3.3919    2.3118    1.7512 H   0  0  0  0  0  0  0  0  0  0  0  0
    2.6496    1.1418    0.1005 C   0  0  0  0  0  0  0  0  0  0  0  0
    0.7706   -2.3477    0.2590 Cl  0  0  0  0  0  0  0  0  0  0  0  0
   -0.6506    1.5571   -1.6533 Cl  0  0  0  0  0  0  0  0  0  0  0  0
   -1.3833   -0.1260    0.8694 C   0  0  0  0  0  0  0  0  0  0  0  0
   -1.8380    0.5121    2.0254 N   0  0  0  0  0  0  0  0  0  0  0  0
   -3.2182    0.0805    2.4572 C   0  0  0  0  0  0  0  0  0  0  0  0
   -3.6342   -0.9450    1.3796 C   0  0  0  0  0  0  0  0  0  0  0  0
   -2.4288   -0.9861    0.4902 N   0  0  0  0  0  0  0  0  0  0  0  0
   -3.1792   -0.3680    3.4703 H   0  0  0  0  0  0  0  0  0  0  0  0
   -3.8978    0.9559    2.4885 H   0  0  0  0  0  0  0  0  0  0  0  0
   -4.5270   -0.6203    0.8074 H   0  0  0  0  0  0  0  0  0  0  0  0
   -3.8412   -1.9469    1.8068 H   0  0  0  0  0  0  0  0  0  0  0  0
   -2.3795   -1.8515   -0.6456 C   0  0  0  0  0  0  0  0  0  0  0  0
   -2.3361   -3.5752   -2.8941 C   0  0  0  0  0  0  0  0  0  0  0  0
   -2.7122   -1.3949   -1.9424 C   0  0  0  0  0  0  0  0  0  0  0  0
   -2.0145   -3.2149   -0.5330 C   0  0  0  0  0  0  0  0  0  0  0  0
   -1.9918   -4.0757   -1.6361 C   0  0  0  0  0  0  0  0  0  0  0  0
   -2.6989   -2.2345   -3.0597 C   0  0  0  0  0  0  0  0  0  0  0  0
   -1.6943   -5.1183   -1.5146 H   0  0  0  0  0  0  0  0  0  0  0  0
   -2.9644   -1.8487   -4.0445 H   0  0  0  0  0  0  0  0  0  0  0  0
   -1.1769    1.4955    2.8201 C   0  0  0  0  0  0  0  0  0  0  0  0
    0.0772    3.4548    4.4461 C   0  0  0  0  0  0  0  0  0  0  0  0
   -1.2731    2.8770    2.5370 C   0  0  0  0  0  0  0  0  0  0  0  0
   -0.4387    1.1510    3.9759 C   0  0  0  0  0  0  0  0  0  0  0  0
    0.1874    2.1023    4.7843 C   0  0  0  0  0  0  0  0  0  0  0  0
   -0.6542    3.8529    3.3244 C   0  0  0  0  0  0  0  0  0  0  0  0
    0.7546    1.7958    5.6647 H   0  0  0  0  0  0  0  0  0  0  0  0
   -0.7404    4.9095    3.0640 H   0  0  0  0  0  0  0  0  0  0  0  0
   -2.3222   -4.2397   -3.7605 H   0  0  0  0  0  0  0  0  0  0  0  0
    0.5657    4.2081    5.0681 H   0  0  0  0  0  0  0  0  0  0  0  0
   -1.7313   -3.7137    0.6629 F   0  0  0  0  0  0  0  0  0  0  0  0
   -3.0584   -0.1231   -2.1081 F   0  0  0  0  0  0  0  0  0  0  0  0
   -0.3376   -0.1291    4.3199 F   0  0  0  0  0  0  0  0  0  0  0  0
   -1.9895    3.2741    1.4922 F   0  0  0  0  0  0  0  0  0  0  0  0
  2  1  1  0  0  0  0
  3  1  2  0  0  0  0
  4  3  1  0  0  0  0
  5  2  1  0  0  0  0
  6  5  1  0  0  0  0
  7  5  1  0  0  0  0
  8  7  1  0  0  0  0
  9  7  1  0  0  0  0
 10  7  1  0  0  0  0
 11  5  1  0  0  0  0
 12 11  1  0  0  0  0
 13 11  1  0  0  0  0
 14 11  1  0  0  0  0
 15  2  1  0  0  0  0
 15 24  1  0  0  0  0
 16 15  2  0  0  0  0
 17 16  1  0  0  0  0
 18 16  1  0  0  0  0
 19 18  1  0  0  0  0
 20 18  2  0  0  0  0
 21 20  1  0  0  0  0
 22 20  1  0  0  0  0
 22 24  2  0  0  0  0
 23 22  1  0  0  0  0
 24  3  1  0  0  0  0
  1 25  1  0  0  0  0
  1 26  1  0  0  0  0
 27 28  1  0  0  0  0
 27 31  1  0  0  0  0
 28 29  1  0  0  0  0
 29 32  1  0  0  0  0
 29 33  1  0  0  0  0
 29 30  1  0  0  0  0
 30 34  1  0  0  0  0
 30 35  1  0  0  0  0
 30 31  1  0  0  0  0
 36 39  2  0  0  0  0
 39 40  1  0  0  0  0
 37 40  2  0  0  0  0
 37 41  1  0  0  0  0
 38 41  2  0  0  0  0
 36 38  1  0  0  0  0
 40 42  1  0  0  0  0
 41 43  1  0  0  0  0
 31 36  1  0  0  0  0
 44 47  2  0  0  0  0
 47 48  1  0  0  0  0
 45 48  2  0  0  0  0
 45 49  1  0  0  0  0
 46 49  2  0  0  0  0
 44 46  1  0  0  0  0
 48 50  1  0  0  0  0
 49 51  1  0  0  0  0
 28 44  1  0  0  0  0
 37 52  1  0  0  0  0
 45 53  1  0  0  0  0
 39 54  1  0  0  0  0
 38 55  1  0  0  0  0
 47 56  1  0  0  0  0
 46 57  1  0  0  0  0
  1 27  1  0  0  0  0
M  END
> <FrozenCore-PM6_ENERGY>
-486.952

> <RMSD_CONF_CG-CS>
0.586258

> <RMSD_CONF_GO-CS>
0.000000

> <UID>


> <DESCRIPTOR_DEFINITION_1>
desc1=( echo "1 * ( e( $hartree_to_kcalmol * ( ( $freeEnergyZ - $freeEnergyD ) - ( $freeEnergyX + 2*$G_Ethene - $freeEnergyD - 2*$G_Propene ) - $DDG_reference_HGII ) / $kT ) ) " | bc -l )

> <DESCRIPTOR_DEFINITION_2>
desc1=( echo "1 * ( e( $hartree_to_kcalmol * ( ( $freeEnergyZ - $freeEnergyD ) - ( $freeEnergyX + 2*$G_Ethene - $freeEnergyD - 2*$G_Propene ) - $DDG_reference_HGII ) / $kT ) ) " | bc -l )

> <DESCRIPTOR_DEFINITION_3>
desc1=( echo "1 * ( e( $hartree_to_kcalmol * ( ( $freeEnergyZ - $freeEnergyD ) - ( $freeEnergyX + 2*$G_Ethene - $freeEnergyD - 2*$G_Propene ) - $DDG_reference_HGII ) / $kT ) ) " | bc -l )

> <WEIGHT_DEFINITION_1>
w1=$( echo "1 / ( 1 + e( $hartree_to_kcalmol * ( ( ( $freeEnergyX + 2*$G_Ethene - $freeEnergyD - 2*$G_Propene ) ) - ( $DG_referenceProductionBarrier + $magnitude4 ) ) / $kT ) )" | bc -l )

> <WEIGHT_DEFINITION_2>
w1=$( echo "1 / ( 1 + e( $hartree_to_kcalmol * ( ( ( $freeEnergyX + 2*$G_Ethene - $freeEnergyD - 2*$G_Propene ) ) - ( $DG_referenceProductionBarrier + $magnitude4 ) ) / $kT ) )" | bc -l )

> <WEIGHT_DEFINITION_3>
w1=$( echo "1 / ( 1 + e( $hartree_to_kcalmol * ( ( ( $freeEnergyX + 2*$G_Ethene - $freeEnergyD - 2*$G_Propene ) ) - ( $DG_referenceProductionBarrier + $magnitude4 ) ) / $kT ) )" | bc -l )

> <WEIGHT_DEFINITION_4>
w1=$( echo "1 / ( 1 + e( $hartree_to_kcalmol * ( ( ( $freeEnergyX + 2*$G_Ethene - $freeEnergyD - 2*$G_Propene ) ) - ( $DG_referenceProductionBarrier + $magnitude4 ) ) / $kT ) )" | bc -l )

> <CALCULATION_OF_OVERALL_FITNESS>
fitness=$( echo "( $desc1 + $desc2 + $desc3 ) * ( $w1 * $w2 * $w3 * $w4 )" | bc -l )

> <freeEnergyA>
-2563.16339475

> <freeEnergyF>
-2563.1394053

> <freeEnergyE>
-2563.16339475

> <freeEnergyC>
-2217.90047586

> <freeEnergyL>
-1085.30427451

> <freeEnergyX>
-2296.43216459

> <freeEnergyZ>
-2217.89029233

> <freeEnergyD>
-2217.9242642

> <G_Propene>
-117.738020895

> <G_Ethene>
-78.4716324751

> <G_HoveydaProd>
-502.204109499

> <G_SIMes>
-924.27249048

> <G_HG_RuCl2_SIMes>
-2402.13728523

> <DG_referenceProductionBarrier>
0.01468968

> <DG_referencePrecursorStabilityHII>
-0.0052201621

> <DG_referencePrecursorStabilityHI>
0.0117775312

> <DDG_referencePrecursorStability>
.0169976933

> <DG_referenceSynt>
0.0226072217

> <hartree_to_kcalmol>
627.49467516

> <boltzmann_constant>
0.0000000000000000000000138066

> <avogadro_number>
602214000000000000000000

> <jmol_to_kcalmol>
0.00023901

> <temp>
313.15

> <kT>
.6223089948281258706000000000

> <magnitude1>
1.43290809

> <magnitude2>
2.86581618

> <magnitude3>
4.29872427

> <magnitude4>
5.73163236

> <DFT_IDENTIFIER>
1723549413656

> <DFT_MACHINE>
158.39.114.73

> <XTB_IDENTIFIER>
1723549045261

> <XTB_MACHINE>
158.39.114.73

> <DESCRIPTOR_1>
.00000176858142380816

> <DESCRIPTOR_2>
5.707327743842702232

> <DESCRIPTOR_3>
0.0000000001

> <WEIGHT_1>
.99861895799604824934

> <WEIGHT_2>
.99999436559435584477

> <WEIGHT_3>
.99999999615455541144

> <WEIGHT_4>
.99999999687621212409

> <FITNESS>
5.69941529801750142273

$$$$
