
  CDK     08132405313D

 49 52  0  0  0  0  0  0  0  0999 V2000
   -0.5390   -1.4104   -2.7660 C   0  0  0  0  0  0  0  0  0  0  0  0
    0.4164   -1.9317   -2.5766 H   0  0  0  0  0  0  0  0  0  0  0  0
   -0.9660   -1.7499   -3.7366 H   0  0  0  0  0  0  0  0  0  0  0  0
   -1.2627   -1.7126   -1.9828 H   0  0  0  0  0  0  0  0  0  0  0  0
   -0.3706    0.0891   -2.8111 C   0  0  0  0  0  0  0  0  0  0  0  0
   -1.2938    0.6719   -2.9883 H   0  0  0  0  0  0  0  0  0  0  0  0
    0.8298    0.7359   -3.2056 C   0  0  0  0  0  0  0  0  0  0  0  0
    1.7324    0.1044   -3.2806 H   0  0  0  0  0  0  0  0  0  0  0  0
    0.7671    1.9973   -4.0361 C   0  0  0  0  0  0  0  0  0  0  0  0
    1.7308    2.5395   -4.0675 H   0  0  0  0  0  0  0  0  0  0  0  0
    0.5047    1.7188   -5.0797 H   0  0  0  0  0  0  0  0  0  0  0  0
   -0.0229    2.6728   -3.6513 H   0  0  0  0  0  0  0  0  0  0  0  0
    1.6892    1.8622   -1.3675 C   0  0  0  0  0  0  0  0  0  0  0  0
    1.4838    2.9145   -1.6585 H   0  0  0  0  0  0  0  0  0  0  0  0
    2.7467    1.5167   -1.3679 H   0  0  0  0  0  0  0  0  0  0  0  0
    0.3338    0.7463   -0.8512 Ru  0  0  0  0  0  0  0  0  0  0  0  0
   -1.2798    2.4919   -1.1085 Cl  0  0  0  0  0  0  0  0  0  0  0  0
    1.9522   -1.0266   -0.6194 Cl  0  0  0  0  0  0  0  0  0  0  0  0
    0.1644    0.6847    1.1202 C   0  0  0  0  0  0  0  0  0  0  0  0
   -0.7959   -0.0298    1.7764 N   0  0  0  0  0  0  0  0  0  0  0  0
   -0.4517   -0.2555    3.1964 C   0  0  0  0  0  0  0  0  0  0  0  0
    0.6411    0.8013    3.4307 C   0  0  0  0  0  0  0  0  0  0  0  0
    1.0216    1.1714    2.0527 N   0  0  0  0  0  0  0  0  0  0  0  0
   -1.3395   -0.1054    3.8392 H   0  0  0  0  0  0  0  0  0  0  0  0
   -0.0709   -1.2887    3.3312 H   0  0  0  0  0  0  0  0  0  0  0  0
    1.5160    0.3975    3.9741 H   0  0  0  0  0  0  0  0  0  0  0  0
    0.2602    1.6957    3.9676 H   0  0  0  0  0  0  0  0  0  0  0  0
    2.1469    1.9725    1.7638 C   0  0  0  0  0  0  0  0  0  0  0  0
    4.4043    3.5218    1.1168 C   0  0  0  0  0  0  0  0  0  0  0  0
    3.4471    1.4474    1.8750 C   0  0  0  0  0  0  0  0  0  0  0  0
    2.0146    3.3125    1.3517 C   0  0  0  0  0  0  0  0  0  0  0  0
    3.1257    4.0891    1.0103 C   0  0  0  0  0  0  0  0  0  0  0  0
    4.5787    2.2005    1.5560 C   0  0  0  0  0  0  0  0  0  0  0  0
    2.9721    5.1237    0.6782 H   0  0  0  0  0  0  0  0  0  0  0  0
    5.5711    1.7411    1.6461 H   0  0  0  0  0  0  0  0  0  0  0  0
   -1.6835   -0.8753    1.0623 C   0  0  0  0  0  0  0  0  0  0  0  0
   -3.4497   -2.5477   -0.3572 C   0  0  0  0  0  0  0  0  0  0  0  0
   -1.3898   -2.2375    0.8472 C   0  0  0  0  0  0  0  0  0  0  0  0
   -2.9137   -0.3878    0.5746 C   0  0  0  0  0  0  0  0  0  0  0  0
   -3.7870   -1.2023   -0.1543 C   0  0  0  0  0  0  0  0  0  0  0  0
   -2.2539   -3.0821    0.1480 C   0  0  0  0  0  0  0  0  0  0  0  0
   -4.7233   -0.7722   -0.5314 H   0  0  0  0  0  0  0  0  0  0  0  0
   -1.9727   -4.1322   -0.0001 H   0  0  0  0  0  0  0  0  0  0  0  0
    5.2852    4.1235    0.8540 H   0  0  0  0  0  0  0  0  0  0  0  0
   -4.1338   -3.1965   -0.9216 H   0  0  0  0  0  0  0  0  0  0  0  0
    0.7789    3.8354    1.2731 F   0  0  0  0  0  0  0  0  0  0  0  0
    3.5795    0.1768    2.3055 F   0  0  0  0  0  0  0  0  0  0  0  0
   -3.2477    0.8834    0.8325 F   0  0  0  0  0  0  0  0  0  0  0  0
   -0.2353   -2.7228    1.3464 F   0  0  0  0  0  0  0  0  0  0  0  0
  1  2  1  0  0  0  0
  1  5  1  0  0  0  0
  1  3  1  0  0  0  0
  1  4  1  0  0  0  0
  5  6  1  0  0  0  0
  5 16  1  0  0  0  0
  5  7  1  0  0  0  0
  7  9  1  0  0  0  0
  7  8  1  0  0  0  0
  9 10  1  0  0  0  0
  9 11  1  0  0  0  0
  9 12  1  0  0  0  0
 13 14  1  0  0  0  0
 13 15  1  0  0  0  0
  7 13  1  0  0  0  0
 13 16  1  0  0  0  0
 16 17  1  0  0  0  0
 16 18  1  0  0  0  0
 19 20  1  0  0  0  0
 19 23  1  0  0  0  0
 20 21  1  0  0  0  0
 21 24  1  0  0  0  0
 21 25  1  0  0  0  0
 21 22  1  0  0  0  0
 22 26  1  0  0  0  0
 22 27  1  0  0  0  0
 22 23  1  0  0  0  0
 28 31  2  0  0  0  0
 31 32  1  0  0  0  0
 29 32  2  0  0  0  0
 29 33  1  0  0  0  0
 30 33  2  0  0  0  0
 28 30  1  0  0  0  0
 32 34  1  0  0  0  0
 33 35  1  0  0  0  0
 23 28  1  0  0  0  0
 36 39  2  0  0  0  0
 39 40  1  0  0  0  0
 37 40  2  0  0  0  0
 37 41  1  0  0  0  0
 38 41  2  0  0  0  0
 36 38  1  0  0  0  0
 40 42  1  0  0  0  0
 41 43  1  0  0  0  0
 20 36  1  0  0  0  0
 29 44  1  0  0  0  0
 37 45  1  0  0  0  0
 31 46  1  0  0  0  0
 30 47  1  0  0  0  0
 39 48  1  0  0  0  0
 38 49  1  0  0  0  0
 16 19  1  0  0  0  0
M  END
>  <DFT-ENERGY>
-2296.43216458

$$$$
