
  CDK     08132409453D

 43 47  0  0  0  0  0  0  0  0999 V2000
    0.3621    0.8606   -3.0637 H   0  0  0  0  0  0  0  0  0  0  0  0
    1.5675    0.6289   -3.1503 C   0  0  0  0  0  0  0  0  0  0  0  0
    1.4770    0.6951   -4.2569 H   0  0  0  0  0  0  0  0  0  0  0  0
    1.6465   -0.6638   -2.4026 C   0  0  0  0  0  0  0  0  0  0  0  0
    2.6016   -0.9117   -1.9109 H   0  0  0  0  0  0  0  0  0  0  0  0
    1.1191   -1.5182   -2.8622 H   0  0  0  0  0  0  0  0  0  0  0  0
    0.4863    0.6418   -1.3079 Ru  0  0  0  0  0  0  0  0  0  0  0  0
    2.0371    1.7453   -2.3197 C   0  0  0  0  0  0  0  0  0  0  0  0
    2.9781    1.6449   -1.7649 H   0  0  0  0  0  0  0  0  0  0  0  0
    1.7655    2.7673   -2.6370 H   0  0  0  0  0  0  0  0  0  0  0  0
    2.2534    0.6874    0.3893 Cl  0  0  0  0  0  0  0  0  0  0  0  0
   -1.6113    0.0918   -2.3224 Cl  0  0  0  0  0  0  0  0  0  0  0  0
   -0.3880    0.0106    0.4198 C   0  0  0  0  0  0  0  0  0  0  0  0
   -0.9297   -1.2137    0.6339 N   0  0  0  0  0  0  0  0  0  0  0  0
   -1.7759   -1.2525    1.8462 C   0  0  0  0  0  0  0  0  0  0  0  0
   -1.2718   -0.0264    2.6091 C   0  0  0  0  0  0  0  0  0  0  0  0
   -0.6690    0.7769    1.5195 N   0  0  0  0  0  0  0  0  0  0  0  0
   -2.8432   -1.1741    1.5548 H   0  0  0  0  0  0  0  0  0  0  0  0
   -1.6164   -2.1976    2.3967 H   0  0  0  0  0  0  0  0  0  0  0  0
   -0.4972   -0.2890    3.3550 H   0  0  0  0  0  0  0  0  0  0  0  0
   -2.0786    0.5417    3.1065 H   0  0  0  0  0  0  0  0  0  0  0  0
   -0.2327    2.1035    1.7017 C   0  0  0  0  0  0  0  0  0  0  0  0
    0.6114    4.7977    2.0377 C   0  0  0  0  0  0  0  0  0  0  0  0
    0.3315    2.5649    2.9087 C   0  0  0  0  0  0  0  0  0  0  0  0
   -0.3457    3.0638    0.6776 C   0  0  0  0  0  0  0  0  0  0  0  0
    0.0708    4.3844    0.8120 C   0  0  0  0  0  0  0  0  0  0  0  0
    0.7361    3.8870    3.0945 C   0  0  0  0  0  0  0  0  0  0  0  0
   -0.0423    5.0662   -0.0400 H   0  0  0  0  0  0  0  0  0  0  0  0
    1.1698    4.1702    4.0620 H   0  0  0  0  0  0  0  0  0  0  0  0
   -0.8528   -2.3153   -0.2502 C   0  0  0  0  0  0  0  0  0  0  0  0
   -0.7249   -4.5555   -1.9588 C   0  0  0  0  0  0  0  0  0  0  0  0
    0.3662   -2.9724   -0.5017 C   0  0  0  0  0  0  0  0  0  0  0  0
   -2.0070   -2.8415   -0.8591 C   0  0  0  0  0  0  0  0  0  0  0  0
   -1.9639   -3.9491   -1.7056 C   0  0  0  0  0  0  0  0  0  0  0  0
    0.4473   -4.0715   -1.3613 C   0  0  0  0  0  0  0  0  0  0  0  0
   -2.8947   -4.3054   -2.1641 H   0  0  0  0  0  0  0  0  0  0  0  0
    1.4261   -4.5368   -1.5335 H   0  0  0  0  0  0  0  0  0  0  0  0
    0.9432    5.8363    2.1678 H   0  0  0  0  0  0  0  0  0  0  0  0
   -0.6731   -5.4223   -2.6318 H   0  0  0  0  0  0  0  0  0  0  0  0
   -0.8866    2.6648   -0.5114 F   0  0  0  0  0  0  0  0  0  0  0  0
    0.4974    1.6872    3.9307 F   0  0  0  0  0  0  0  0  0  0  0  0
   -3.1925   -2.2439   -0.6005 F   0  0  0  0  0  0  0  0  0  0  0  0
    1.4795   -2.5216    0.1034 F   0  0  0  0  0  0  0  0  0  0  0  0
  1  2  1  0  0  0  0
  1  7  1  0  0  0  0
  2  3  1  0  0  0  0
  2  4  1  0  0  0  0
  4  5  1  0  0  0  0
  6  4  1  0  0  0  0
  7  8  1  0  0  0  0
  7  4  1  0  0  0  0
  8  2  1  0  0  0  0
  8  9  1  0  0  0  0
 10  8  1  0  0  0  0
  7 11  1  0  0  0  0
  7 12  1  0  0  0  0
 13 14  1  0  0  0  0
 13 17  1  0  0  0  0
 14 15  1  0  0  0  0
 15 18  1  0  0  0  0
 15 19  1  0  0  0  0
 15 16  1  0  0  0  0
 16 20  1  0  0  0  0
 16 21  1  0  0  0  0
 16 17  1  0  0  0  0
 22 25  2  0  0  0  0
 25 26  1  0  0  0  0
 23 26  2  0  0  0  0
 23 27  1  0  0  0  0
 24 27  2  0  0  0  0
 22 24  1  0  0  0  0
 26 28  1  0  0  0  0
 27 29  1  0  0  0  0
 17 22  1  0  0  0  0
 30 33  2  0  0  0  0
 33 34  1  0  0  0  0
 31 34  2  0  0  0  0
 31 35  1  0  0  0  0
 32 35  2  0  0  0  0
 30 32  1  0  0  0  0
 34 36  1  0  0  0  0
 35 37  1  0  0  0  0
 14 30  1  0  0  0  0
 23 38  1  0  0  0  0
 31 39  1  0  0  0  0
 25 40  1  0  0  0  0
 24 41  1  0  0  0  0
 33 42  1  0  0  0  0
 32 43  1  0  0  0  0
  7 13  1  0  0  0  0
M  END
>  <DFT-ENERGY>
-2217.89029253

$$$$
