
  CDK     08152411193D

 85 88  0  0  0  0  0  0  0  0999 V2000
    2.1313    1.2484   -0.2026 Ru  0  0  0  0  0  0  0  0  0  0  0  0
    3.7464    1.1405   -1.3068 C   0  0  0  0  0  0  0  0  0  0  0  0
    3.6126    1.4065   -2.3701 H   0  0  0  0  0  0  0  0  0  0  0  0
    4.0683    2.3828   -0.3828 C   0  0  0  0  0  0  0  0  0  0  0  0
    4.1911    3.2497   -1.0571 H   0  0  0  0  0  0  0  0  0  0  0  0
    2.9653    2.7888    0.6751 C   0  0  0  0  0  0  0  0  0  0  0  0
    3.2788    2.6264    1.7212 H   0  0  0  0  0  0  0  0  0  0  0  0
    2.4952    3.7636    0.4521 H   0  0  0  0  0  0  0  0  0  0  0  0
    4.9719    2.1176    0.1955 H   0  0  0  0  0  0  0  0  0  0  0  0
    4.3966    0.2716   -1.0991 H   0  0  0  0  0  0  0  0  0  0  0  0
    1.1998    2.7081   -1.8598 Cl  0  0  0  0  0  0  0  0  0  0  0  0
    3.1776   -0.1455    1.4437 Cl  0  0  0  0  0  0  0  0  0  0  0  0
    0.4172    0.2428   -0.0401 C   0  0  0  0  0  0  0  0  0  0  0  0
   -0.0349   -0.6547   -0.9448 N   0  0  0  0  0  0  0  0  0  0  0  0
   -1.3371   -1.2637   -0.5247 C   0  0  0  0  0  0  0  0  0  0  0  0
   -1.6571   -0.5022    0.8112 C   0  0  0  0  0  0  0  0  0  0  0  0
   -0.4493    0.3650    0.9907 N   0  0  0  0  0  0  0  0  0  0  0  0
   -2.1004   -1.0011   -1.2862 H   0  0  0  0  0  0  0  0  0  0  0  0
   -1.6842   -1.2300    1.6483 H   0  0  0  0  0  0  0  0  0  0  0  0
    0.5993   -0.7535   -2.2447 C   0  0  0  0  0  0  0  0  0  0  0  0
    1.8778   -0.8116   -4.7735 C   0  0  0  0  0  0  0  0  0  0  0  0
    1.8379   -1.4290   -2.3862 C   0  0  0  0  0  0  0  0  0  0  0  0
   -0.0034   -0.1103   -3.3567 C   0  0  0  0  0  0  0  0  0  0  0  0
    0.6419   -0.1663   -4.5995 C   0  0  0  0  0  0  0  0  0  0  0  0
    2.4520   -1.4279   -3.6550 C   0  0  0  0  0  0  0  0  0  0  0  0
    0.1736    0.3468   -5.4538 H   0  0  0  0  0  0  0  0  0  0  0  0
    3.4194   -1.9430   -3.7619 H   0  0  0  0  0  0  0  0  0  0  0  0
    2.5639   -0.8145   -6.1155 C   0  0  0  0  0  0  0  0  0  0  0  0
    1.8939   -1.1999   -6.9112 H   0  0  0  0  0  0  0  0  0  0  0  0
    3.4785   -1.4375   -6.1053 H   0  0  0  0  0  0  0  0  0  0  0  0
    2.8572    0.2141   -6.4130 H   0  0  0  0  0  0  0  0  0  0  0  0
    2.5120   -2.2056   -1.2845 C   0  0  0  0  0  0  0  0  0  0  0  0
    2.4295   -1.7344   -0.2881 H   0  0  0  0  0  0  0  0  0  0  0  0
    3.5918   -2.3089   -1.5029 H   0  0  0  0  0  0  0  0  0  0  0  0
    2.0956   -3.2334   -1.2211 H   0  0  0  0  0  0  0  0  0  0  0  0
   -1.2805    0.6714   -3.2302 C   0  0  0  0  0  0  0  0  0  0  0  0
   -1.2129    1.3797   -2.3837 H   0  0  0  0  0  0  0  0  0  0  0  0
   -2.1629    0.0156   -3.0730 H   0  0  0  0  0  0  0  0  0  0  0  0
   -1.4650    1.2590   -4.1482 H   0  0  0  0  0  0  0  0  0  0  0  0
   -0.0516    1.0743    2.1908 C   0  0  0  0  0  0  0  0  0  0  0  0
    0.8569    2.4272    4.5096 C   0  0  0  0  0  0  0  0  0  0  0  0
    0.3727    0.3309    3.3226 C   0  0  0  0  0  0  0  0  0  0  0  0
   -0.0278    2.4919    2.2084 C   0  0  0  0  0  0  0  0  0  0  0  0
    0.4411    3.1322    3.3734 C   0  0  0  0  0  0  0  0  0  0  0  0
    0.8035    1.0240    4.4619 C   0  0  0  0  0  0  0  0  0  0  0  0
    0.4699    4.2329    3.3828 H   0  0  0  0  0  0  0  0  0  0  0  0
    1.1434    0.4391    5.3307 H   0  0  0  0  0  0  0  0  0  0  0  0
    1.3680    3.1383    5.7363 C   0  0  0  0  0  0  0  0  0  0  0  0
    0.8332    2.8050    6.6492 H   0  0  0  0  0  0  0  0  0  0  0  0
    1.2510    4.2355    5.6509 H   0  0  0  0  0  0  0  0  0  0  0  0
    2.4452    2.9239    5.8988 H   0  0  0  0  0  0  0  0  0  0  0  0
    0.4218   -1.1709    3.3174 C   0  0  0  0  0  0  0  0  0  0  0  0
    0.9818   -1.5410    4.1959 H   0  0  0  0  0  0  0  0  0  0  0  0
    0.9387   -1.5339    2.4101 H   0  0  0  0  0  0  0  0  0  0  0  0
   -0.5908   -1.6261    3.3538 H   0  0  0  0  0  0  0  0  0  0  0  0
   -0.5330    3.3634    1.0876 C   0  0  0  0  0  0  0  0  0  0  0  0
   -1.6321    3.5027    1.1675 H   0  0  0  0  0  0  0  0  0  0  0  0
   -0.3032    2.9747    0.0790 H   0  0  0  0  0  0  0  0  0  0  0  0
   -0.0755    4.3685    1.1564 H   0  0  0  0  0  0  0  0  0  0  0  0
   -1.2905   -2.8297   -0.4508 C   0  0  0  0  0  0  0  0  0  0  0  0
   -0.9749   -3.3955   -1.8514 C   0  0  0  0  0  0  0  0  0  0  0  0
   -1.6613   -2.9777   -2.6168 H   0  0  0  0  0  0  0  0  0  0  0  0
   -1.1096   -4.4960   -1.8437 H   0  0  0  0  0  0  0  0  0  0  0  0
    0.0561   -3.1840   -2.1814 H   0  0  0  0  0  0  0  0  0  0  0  0
   -0.2557   -3.3242    0.5716 C   0  0  0  0  0  0  0  0  0  0  0  0
   -0.0858   -4.4120    0.4412 H   0  0  0  0  0  0  0  0  0  0  0  0
   -0.6073   -3.1724    1.6100 H   0  0  0  0  0  0  0  0  0  0  0  0
    0.7160   -2.8126    0.4611 H   0  0  0  0  0  0  0  0  0  0  0  0
   -2.6641   -3.3938   -0.0477 C   0  0  0  0  0  0  0  0  0  0  0  0
   -3.4561   -3.1217   -0.7735 H   0  0  0  0  0  0  0  0  0  0  0  0
   -2.9810   -3.0603    0.9582 H   0  0  0  0  0  0  0  0  0  0  0  0
   -2.6022   -4.5005   -0.0226 H   0  0  0  0  0  0  0  0  0  0  0  0
   -3.0047    0.2985    0.8620 C   0  0  0  0  0  0  0  0  0  0  0  0
   -4.2049   -0.6513    0.7045 C   0  0  0  0  0  0  0  0  0  0  0  0
   -4.2062   -1.1742   -0.2702 H   0  0  0  0  0  0  0  0  0  0  0  0
   -5.1397   -0.0580    0.7606 H   0  0  0  0  0  0  0  0  0  0  0  0
   -4.2444   -1.4110    1.5104 H   0  0  0  0  0  0  0  0  0  0  0  0
   -3.1480    0.9656    2.2461 C   0  0  0  0  0  0  0  0  0  0  0  0
   -2.4288    1.7862    2.4074 H   0  0  0  0  0  0  0  0  0  0  0  0
   -3.0015    0.2295    3.0635 H   0  0  0  0  0  0  0  0  0  0  0  0
   -4.1694    1.3845    2.3498 H   0  0  0  0  0  0  0  0  0  0  0  0
   -3.0859    1.3542   -0.2514 C   0  0  0  0  0  0  0  0  0  0  0  0
   -3.9286    2.0471   -0.0543 H   0  0  0  0  0  0  0  0  0  0  0  0
   -3.2717    0.8891   -1.2383 H   0  0  0  0  0  0  0  0  0  0  0  0
   -2.1623    1.9540   -0.3243 H   0  0  0  0  0  0  0  0  0  0  0  0
  2  4  1  0  0  0  0
  2  1  1  0  0  0  0
  2  3  1  0  0  0  0
  4  6  1  0  0  0  0
  4  5  1  0  0  0  0
  6  1  1  0  0  0  0
  6  8  1  0  0  0  0
  7  6  1  0  0  0  0
  9  4  1  0  0  0  0
 10  2  1  0  0  0  0
  1 11  1  0  0  0  0
  1 12  1  0  0  0  0
 13 14  1  0  0  0  0
 13 17  1  0  0  0  0
 14 15  1  0  0  0  0
 15 18  1  0  0  0  0
 15 16  1  0  0  0  0
 16 19  1  0  0  0  0
 16 17  1  0  0  0  0
 20 23  2  0  0  0  0
 20 22  1  0  0  0  0
 21 24  2  0  0  0  0
 21 25  1  0  0  0  0
 22 25  2  0  0  0  0
 23 24  1  0  0  0  0
 24 26  1  0  0  0  0
 25 27  1  0  0  0  0
 14 20  1  0  0  0  0
 28 29  1  0  0  0  0
 28 30  1  0  0  0  0
 28 31  1  0  0  0  0
 21 28  1  0  0  0  0
 32 33  1  0  0  0  0
 32 34  1  0  0  0  0
 32 35  1  0  0  0  0
 22 32  1  0  0  0  0
 36 37  1  0  0  0  0
 36 38  1  0  0  0  0
 36 39  1  0  0  0  0
 23 36  1  0  0  0  0
 40 43  2  0  0  0  0
 40 42  1  0  0  0  0
 41 44  2  0  0  0  0
 41 45  1  0  0  0  0
 42 45  2  0  0  0  0
 43 44  1  0  0  0  0
 44 46  1  0  0  0  0
 45 47  1  0  0  0  0
 17 40  1  0  0  0  0
 48 49  1  0  0  0  0
 48 50  1  0  0  0  0
 48 51  1  0  0  0  0
 41 48  1  0  0  0  0
 52 53  1  0  0  0  0
 52 54  1  0  0  0  0
 52 55  1  0  0  0  0
 42 52  1  0  0  0  0
 56 57  1  0  0  0  0
 56 58  1  0  0  0  0
 56 59  1  0  0  0  0
 43 56  1  0  0  0  0
 60 61  1  0  0  0  0
 60 65  1  0  0  0  0
 60 69  1  0  0  0  0
 61 62  1  0  0  0  0
 61 63  1  0  0  0  0
 61 64  1  0  0  0  0
 65 66  1  0  0  0  0
 65 67  1  0  0  0  0
 65 68  1  0  0  0  0
 69 70  1  0  0  0  0
 69 71  1  0  0  0  0
 69 72  1  0  0  0  0
 15 60  1  0  0  0  0
 73 74  1  0  0  0  0
 73 78  1  0  0  0  0
 73 82  1  0  0  0  0
 74 75  1  0  0  0  0
 74 76  1  0  0  0  0
 74 77  1  0  0  0  0
 78 79  1  0  0  0  0
 78 80  1  0  0  0  0
 78 81  1  0  0  0  0
 82 83  1  0  0  0  0
 82 84  1  0  0  0  0
 82 85  1  0  0  0  0
 16 73  1  0  0  0  0
  1 13  1  0  0  0  0
M  END
>  <DFT-ENERGY>
-2370.99751785

$$$$
