
  CDK     08142404583D

 91 94  0  0  0  0  0  0  0  0999 V2000
   -0.4141   -4.2744   -2.1470 C   0  0  0  0  0  0  0  0  0  0  0  0
    0.6183   -4.2945   -2.5381 H   0  0  0  0  0  0  0  0  0  0  0  0
   -0.9341   -5.2181   -2.4278 H   0  0  0  0  0  0  0  0  0  0  0  0
   -0.9528   -3.4447   -2.6422 H   0  0  0  0  0  0  0  0  0  0  0  0
   -0.4396   -4.1441   -0.6423 C   0  0  0  0  0  0  0  0  0  0  0  0
   -1.4397   -4.1800   -0.1685 H   0  0  0  0  0  0  0  0  0  0  0  0
    0.6235   -4.6128    0.1765 C   0  0  0  0  0  0  0  0  0  0  0  0
    1.5689   -4.8387   -0.3483 H   0  0  0  0  0  0  0  0  0  0  0  0
    0.3513   -5.3389    1.4723 C   0  0  0  0  0  0  0  0  0  0  0  0
    1.2544   -5.4360    2.1039 H   0  0  0  0  0  0  0  0  0  0  0  0
   -0.0023   -6.3650    1.2317 H   0  0  0  0  0  0  0  0  0  0  0  0
   -0.4437   -4.8241    2.0469 H   0  0  0  0  0  0  0  0  0  0  0  0
    1.6094   -2.7897    1.2204 C   0  0  0  0  0  0  0  0  0  0  0  0
    1.3681   -2.9576    2.2910 H   0  0  0  0  0  0  0  0  0  0  0  0
    2.6566   -2.9626    0.8902 H   0  0  0  0  0  0  0  0  0  0  0  0
    0.3370   -2.2111    0.0284 Ru  0  0  0  0  0  0  0  0  0  0  0  0
   -1.2833   -2.3100    1.8161 Cl  0  0  0  0  0  0  0  0  0  0  0  0
    2.0012   -2.1709   -1.7086 Cl  0  0  0  0  0  0  0  0  0  0  0  0
    0.1763   -0.2135    0.0193 C   0  0  0  0  0  0  0  0  0  0  0  0
    0.7586    0.6812    0.8621 N   0  0  0  0  0  0  0  0  0  0  0  0
    0.3651    2.0947    0.5495 C   0  0  0  0  0  0  0  0  0  0  0  0
   -0.6248    1.9232   -0.6539 C   0  0  0  0  0  0  0  0  0  0  0  0
   -0.6156    0.4421   -0.8700 N   0  0  0  0  0  0  0  0  0  0  0  0
   -0.1910    2.4966    1.4221 H   0  0  0  0  0  0  0  0  0  0  0  0
   -0.1939    2.4078   -1.5553 H   0  0  0  0  0  0  0  0  0  0  0  0
    1.4197    0.2575    2.0773 C   0  0  0  0  0  0  0  0  0  0  0  0
    2.6627   -0.6388    4.4658 C   0  0  0  0  0  0  0  0  0  0  0  0
    2.7519   -0.2299    2.0352 C   0  0  0  0  0  0  0  0  0  0  0  0
    0.7056    0.2902    3.3015 C   0  0  0  0  0  0  0  0  0  0  0  0
    1.3468   -0.1490    4.4708 C   0  0  0  0  0  0  0  0  0  0  0  0
    3.3379   -0.6721    3.2381 C   0  0  0  0  0  0  0  0  0  0  0  0
    0.7800   -0.1281    5.4148 H   0  0  0  0  0  0  0  0  0  0  0  0
    4.3692   -1.0568    3.2014 H   0  0  0  0  0  0  0  0  0  0  0  0
    3.3131   -1.1211    5.7376 C   0  0  0  0  0  0  0  0  0  0  0  0
    3.3652   -0.3115    6.4950 H   0  0  0  0  0  0  0  0  0  0  0  0
    4.3428   -1.4841    5.5568 H   0  0  0  0  0  0  0  0  0  0  0  0
    2.7338   -1.9502    6.1942 H   0  0  0  0  0  0  0  0  0  0  0  0
    3.5946   -0.2623    0.7871 C   0  0  0  0  0  0  0  0  0  0  0  0
    4.0718    0.7236    0.6078 H   0  0  0  0  0  0  0  0  0  0  0  0
    3.0247   -0.5457   -0.1176 H   0  0  0  0  0  0  0  0  0  0  0  0
    4.4140   -0.9972    0.9032 H   0  0  0  0  0  0  0  0  0  0  0  0
   -0.7226    0.7517    3.3822 C   0  0  0  0  0  0  0  0  0  0  0  0
   -1.3259    0.2893    2.5800 H   0  0  0  0  0  0  0  0  0  0  0  0
   -0.8075    1.8565    3.3012 H   0  0  0  0  0  0  0  0  0  0  0  0
   -1.1680    0.4577    4.3506 H   0  0  0  0  0  0  0  0  0  0  0  0
   -1.0953   -0.2514   -2.0504 C   0  0  0  0  0  0  0  0  0  0  0  0
   -1.9862   -1.5771   -4.3997 C   0  0  0  0  0  0  0  0  0  0  0  0
   -0.3582   -0.1312   -3.2600 C   0  0  0  0  0  0  0  0  0  0  0  0
   -2.2722   -1.0455   -2.0057 C   0  0  0  0  0  0  0  0  0  0  0  0
   -2.6849   -1.6894   -3.1913 C   0  0  0  0  0  0  0  0  0  0  0  0
   -0.8216   -0.7911   -4.4066 C   0  0  0  0  0  0  0  0  0  0  0  0
   -3.5982   -2.3035   -3.1532 H   0  0  0  0  0  0  0  0  0  0  0  0
   -0.2352   -0.6997   -5.3340 H   0  0  0  0  0  0  0  0  0  0  0  0
   -2.4342   -2.3099   -5.6376 C   0  0  0  0  0  0  0  0  0  0  0  0
   -2.3465   -1.6738   -6.5410 H   0  0  0  0  0  0  0  0  0  0  0  0
   -3.4837   -2.6513   -5.5532 H   0  0  0  0  0  0  0  0  0  0  0  0
   -1.8034   -3.2077   -5.8121 H   0  0  0  0  0  0  0  0  0  0  0  0
    0.9134    0.6638   -3.3399 C   0  0  0  0  0  0  0  0  0  0  0  0
    1.4524    0.4348   -4.2775 H   0  0  0  0  0  0  0  0  0  0  0  0
    1.5818    0.4112   -2.4968 H   0  0  0  0  0  0  0  0  0  0  0  0
    0.7194    1.7570   -3.3252 H   0  0  0  0  0  0  0  0  0  0  0  0
   -3.1557   -1.2001   -0.7958 C   0  0  0  0  0  0  0  0  0  0  0  0
   -2.6003   -1.2023    0.1587 H   0  0  0  0  0  0  0  0  0  0  0  0
   -3.7055   -2.1590   -0.8531 H   0  0  0  0  0  0  0  0  0  0  0  0
   -3.9167   -0.3922   -0.7598 H   0  0  0  0  0  0  0  0  0  0  0  0
    1.5936    3.0474    0.3202 C   0  0  0  0  0  0  0  0  0  0  0  0
    2.4278    3.1349    1.6159 C   0  0  0  0  0  0  0  0  0  0  0  0
    1.7866    3.3788    2.4882 H   0  0  0  0  0  0  0  0  0  0  0  0
    3.1799    3.9436    1.5152 H   0  0  0  0  0  0  0  0  0  0  0  0
    2.9654    2.2022    1.8526 H   0  0  0  0  0  0  0  0  0  0  0  0
    2.4681    2.5823   -0.8548 C   0  0  0  0  0  0  0  0  0  0  0  0
    3.4393    3.1170   -0.8381 H   0  0  0  0  0  0  0  0  0  0  0  0
    1.9903    2.8076   -1.8274 H   0  0  0  0  0  0  0  0  0  0  0  0
    2.6736    1.4993   -0.8190 H   0  0  0  0  0  0  0  0  0  0  0  0
    1.1270    4.4815    0.0128 C   0  0  0  0  0  0  0  0  0  0  0  0
    0.5393    4.9184    0.8441 H   0  0  0  0  0  0  0  0  0  0  0  0
    0.5260    4.5432   -0.9134 H   0  0  0  0  0  0  0  0  0  0  0  0
    2.0211    5.1207   -0.1332 H   0  0  0  0  0  0  0  0  0  0  0  0
   -2.0694    2.5117   -0.4689 C   0  0  0  0  0  0  0  0  0  0  0  0
   -2.0256    4.0315   -0.2315 C   0  0  0  0  0  0  0  0  0  0  0  0
   -1.4769    4.3010    0.6901 H   0  0  0  0  0  0  0  0  0  0  0  0
   -3.0644    4.4011   -0.1148 H   0  0  0  0  0  0  0  0  0  0  0  0
   -1.5735    4.5768   -1.0832 H   0  0  0  0  0  0  0  0  0  0  0  0
   -2.8718    2.3022   -1.7705 C   0  0  0  0  0  0  0  0  0  0  0  0
   -3.1016    1.2443   -1.9772 H   0  0  0  0  0  0  0  0  0  0  0  0
   -2.3178    2.6989   -2.6466 H   0  0  0  0  0  0  0  0  0  0  0  0
   -3.8331    2.8510   -1.7049 H   0  0  0  0  0  0  0  0  0  0  0  0
   -2.7932    1.8757    0.7286 C   0  0  0  0  0  0  0  0  0  0  0  0
   -3.8747    2.1166    0.6892 H   0  0  0  0  0  0  0  0  0  0  0  0
   -2.4070    2.2713    1.6876 H   0  0  0  0  0  0  0  0  0  0  0  0
   -2.6881    0.7778    0.7476 H   0  0  0  0  0  0  0  0  0  0  0  0
  1  2  1  0  0  0  0
  1  5  1  0  0  0  0
  3  1  1  0  0  0  0
  4  1  1  0  0  0  0
  5  6  1  0  0  0  0
  5 16  1  0  0  0  0
  5  7  1  0  0  0  0
  7  9  1  0  0  0  0
  7  8  1  0  0  0  0
  9 10  1  0  0  0  0
 11  9  1  0  0  0  0
 12  9  1  0  0  0  0
 13 14  1  0  0  0  0
 13 15  1  0  0  0  0
 13  7  1  0  0  0  0
 16 13  1  0  0  0  0
 16 17  1  0  0  0  0
 16 18  1  0  0  0  0
 19 20  1  0  0  0  0
 19 23  1  0  0  0  0
 20 21  1  0  0  0  0
 21 24  1  0  0  0  0
 21 22  1  0  0  0  0
 22 25  1  0  0  0  0
 22 23  1  0  0  0  0
 26 29  2  0  0  0  0
 26 28  1  0  0  0  0
 27 30  2  0  0  0  0
 27 31  1  0  0  0  0
 28 31  2  0  0  0  0
 29 30  1  0  0  0  0
 30 32  1  0  0  0  0
 31 33  1  0  0  0  0
 20 26  1  0  0  0  0
 34 35  1  0  0  0  0
 34 36  1  0  0  0  0
 34 37  1  0  0  0  0
 27 34  1  0  0  0  0
 38 39  1  0  0  0  0
 38 40  1  0  0  0  0
 38 41  1  0  0  0  0
 28 38  1  0  0  0  0
 42 43  1  0  0  0  0
 42 44  1  0  0  0  0
 42 45  1  0  0  0  0
 29 42  1  0  0  0  0
 46 49  2  0  0  0  0
 46 48  1  0  0  0  0
 47 50  2  0  0  0  0
 47 51  1  0  0  0  0
 48 51  2  0  0  0  0
 49 50  1  0  0  0  0
 50 52  1  0  0  0  0
 51 53  1  0  0  0  0
 23 46  1  0  0  0  0
 54 55  1  0  0  0  0
 54 56  1  0  0  0  0
 54 57  1  0  0  0  0
 47 54  1  0  0  0  0
 58 59  1  0  0  0  0
 58 60  1  0  0  0  0
 58 61  1  0  0  0  0
 48 58  1  0  0  0  0
 62 63  1  0  0  0  0
 62 64  1  0  0  0  0
 62 65  1  0  0  0  0
 49 62  1  0  0  0  0
 66 67  1  0  0  0  0
 66 71  1  0  0  0  0
 66 75  1  0  0  0  0
 67 68  1  0  0  0  0
 67 69  1  0  0  0  0
 67 70  1  0  0  0  0
 71 72  1  0  0  0  0
 71 73  1  0  0  0  0
 71 74  1  0  0  0  0
 75 76  1  0  0  0  0
 75 77  1  0  0  0  0
 75 78  1  0  0  0  0
 21 66  1  0  0  0  0
 79 80  1  0  0  0  0
 79 84  1  0  0  0  0
 79 88  1  0  0  0  0
 80 81  1  0  0  0  0
 80 82  1  0  0  0  0
 80 83  1  0  0  0  0
 84 85  1  0  0  0  0
 84 86  1  0  0  0  0
 84 87  1  0  0  0  0
 88 89  1  0  0  0  0
 88 90  1  0  0  0  0
 88 91  1  0  0  0  0
 22 79  1  0  0  0  0
 16 19  1  0  0  0  0
M  END
>  <DFT-ENERGY>
-2449.50315438

$$$$
