
  CDK     08152402273D

 85 89  0  0  0  0  0  0  0  0999 V2000
    2.4502   -2.8147    1.0100 H   0  0  0  0  0  0  0  0  0  0  0  0
    3.6687   -2.6760    1.1104 C   0  0  0  0  0  0  0  0  0  0  0  0
    3.7622   -3.7806    1.1941 H   0  0  0  0  0  0  0  0  0  0  0  0
    3.7451   -1.7559    2.2849 C   0  0  0  0  0  0  0  0  0  0  0  0
    4.6107   -1.0760    2.3446 H   0  0  0  0  0  0  0  0  0  0  0  0
    3.3881   -2.1601    3.2476 H   0  0  0  0  0  0  0  0  0  0  0  0
    2.2859   -1.0486    1.0036 Ru  0  0  0  0  0  0  0  0  0  0  0  0
    3.8611   -1.9482   -0.1532 C   0  0  0  0  0  0  0  0  0  0  0  0
    4.7018   -1.2501   -0.2478 H   0  0  0  0  0  0  0  0  0  0  0  0
    3.5406   -2.4498   -1.0824 H   0  0  0  0  0  0  0  0  0  0  0  0
    3.7386    0.8652    0.5426 Cl  0  0  0  0  0  0  0  0  0  0  0  0
    0.6047   -2.2776    2.1949 Cl  0  0  0  0  0  0  0  0  0  0  0  0
    1.0404    0.5703    1.3084 C   0  0  0  0  0  0  0  0  0  0  0  0
    0.4918    1.1465    0.2111 N   0  0  0  0  0  0  0  0  0  0  0  0
   -0.3965    2.2980    0.5354 C   0  0  0  0  0  0  0  0  0  0  0  0
   -0.2672    2.3713    2.0978 C   0  0  0  0  0  0  0  0  0  0  0  0
    0.5860    1.1782    2.4274 N   0  0  0  0  0  0  0  0  0  0  0  0
    0.0526    3.2129    0.0993 H   0  0  0  0  0  0  0  0  0  0  0  0
   -1.2630    2.2329    2.5658 H   0  0  0  0  0  0  0  0  0  0  0  0
    0.9384    0.6833   -1.0821 C   0  0  0  0  0  0  0  0  0  0  0  0
    2.1030   -0.3596   -3.4460 C   0  0  0  0  0  0  0  0  0  0  0  0
    0.6347   -0.6457   -1.4857 C   0  0  0  0  0  0  0  0  0  0  0  0
    1.7564    1.5163   -1.8908 C   0  0  0  0  0  0  0  0  0  0  0  0
    2.3094    0.9778   -3.0592 C   0  0  0  0  0  0  0  0  0  0  0  0
    1.2560   -1.1408   -2.6541 C   0  0  0  0  0  0  0  0  0  0  0  0
    2.9618    1.6212   -3.6701 H   0  0  0  0  0  0  0  0  0  0  0  0
    1.0345   -2.1760   -2.9580 H   0  0  0  0  0  0  0  0  0  0  0  0
    2.7802   -0.9199   -4.6703 C   0  0  0  0  0  0  0  0  0  0  0  0
    2.3884   -1.9216   -4.9315 H   0  0  0  0  0  0  0  0  0  0  0  0
    3.8742   -1.0176   -4.5067 H   0  0  0  0  0  0  0  0  0  0  0  0
    2.6450   -0.2565   -5.5487 H   0  0  0  0  0  0  0  0  0  0  0  0
   -0.4526   -1.4967   -0.8728 C   0  0  0  0  0  0  0  0  0  0  0  0
   -0.2220   -2.5702   -1.0038 H   0  0  0  0  0  0  0  0  0  0  0  0
   -1.4123   -1.2959   -1.3980 H   0  0  0  0  0  0  0  0  0  0  0  0
   -0.6009   -1.3382    0.2066 H   0  0  0  0  0  0  0  0  0  0  0  0
    2.0734    2.9383   -1.5165 C   0  0  0  0  0  0  0  0  0  0  0  0
    2.3911    2.9963   -0.4598 H   0  0  0  0  0  0  0  0  0  0  0  0
    1.2006    3.6107   -1.6624 H   0  0  0  0  0  0  0  0  0  0  0  0
    2.8984    3.3270   -2.1418 H   0  0  0  0  0  0  0  0  0  0  0  0
    0.7315    0.6147    3.7564 C   0  0  0  0  0  0  0  0  0  0  0  0
    0.9481   -0.5362    6.3447 C   0  0  0  0  0  0  0  0  0  0  0  0
   -0.3998    0.0136    4.3660 C   0  0  0  0  0  0  0  0  0  0  0  0
    1.9770    0.6344    4.4311 C   0  0  0  0  0  0  0  0  0  0  0  0
    2.0522    0.0442    5.7081 C   0  0  0  0  0  0  0  0  0  0  0  0
   -0.2724   -0.5311    5.6525 C   0  0  0  0  0  0  0  0  0  0  0  0
    3.0249    0.0569    6.2246 H   0  0  0  0  0  0  0  0  0  0  0  0
   -1.1574   -1.0011    6.1096 H   0  0  0  0  0  0  0  0  0  0  0  0
    1.0655   -1.1727    7.7062 C   0  0  0  0  0  0  0  0  0  0  0  0
    2.0382   -0.9420    8.1815 H   0  0  0  0  0  0  0  0  0  0  0  0
    0.9792   -2.2778    7.6370 H   0  0  0  0  0  0  0  0  0  0  0  0
    0.2595   -0.8291    8.3861 H   0  0  0  0  0  0  0  0  0  0  0  0
   -1.7224   -0.1108    3.6626 C   0  0  0  0  0  0  0  0  0  0  0  0
   -2.3537   -0.8688    4.1625 H   0  0  0  0  0  0  0  0  0  0  0  0
   -1.5789   -0.4270    2.6138 H   0  0  0  0  0  0  0  0  0  0  0  0
   -2.2943    0.8420    3.6624 H   0  0  0  0  0  0  0  0  0  0  0  0
    3.2142    1.3040    3.9000 C   0  0  0  0  0  0  0  0  0  0  0  0
    3.2177    2.3848    4.1594 H   0  0  0  0  0  0  0  0  0  0  0  0
    3.3233    1.2187    2.8047 H   0  0  0  0  0  0  0  0  0  0  0  0
    4.1146    0.8605    4.3668 H   0  0  0  0  0  0  0  0  0  0  0  0
   -1.8389    2.1850   -0.0744 C   0  0  0  0  0  0  0  0  0  0  0  0
   -1.7402    2.0756   -1.6102 C   0  0  0  0  0  0  0  0  0  0  0  0
   -1.1074    2.8810   -2.0362 H   0  0  0  0  0  0  0  0  0  0  0  0
   -2.7524    2.1770   -2.0515 H   0  0  0  0  0  0  0  0  0  0  0  0
   -1.3237    1.1090   -1.9447 H   0  0  0  0  0  0  0  0  0  0  0  0
   -2.6255    0.9869    0.4745 C   0  0  0  0  0  0  0  0  0  0  0  0
   -3.5540    0.8475   -0.1154 H   0  0  0  0  0  0  0  0  0  0  0  0
   -2.9282    1.1442    1.5266 H   0  0  0  0  0  0  0  0  0  0  0  0
   -2.0459    0.0498    0.4171 H   0  0  0  0  0  0  0  0  0  0  0  0
   -2.6416    3.4610    0.2346 C   0  0  0  0  0  0  0  0  0  0  0  0
   -2.1646    4.3664   -0.1909 H   0  0  0  0  0  0  0  0  0  0  0  0
   -2.7803    3.6182    1.3208 H   0  0  0  0  0  0  0  0  0  0  0  0
   -3.6498    3.3711   -0.2178 H   0  0  0  0  0  0  0  0  0  0  0  0
    0.3311    3.7082    2.6613 C   0  0  0  0  0  0  0  0  0  0  0  0
   -0.5735    4.8974    2.2923 C   0  0  0  0  0  0  0  0  0  0  0  0
   -0.6586    5.0445    1.1992 H   0  0  0  0  0  0  0  0  0  0  0  0
   -0.1345    5.8239    2.7141 H   0  0  0  0  0  0  0  0  0  0  0  0
   -1.5936    4.7911    2.7131 H   0  0  0  0  0  0  0  0  0  0  0  0
    0.3704    3.6516    4.2026 C   0  0  0  0  0  0  0  0  0  0  0  0
    1.1146    2.9376    4.5914 H   0  0  0  0  0  0  0  0  0  0  0  0
   -0.6169    3.3615    4.6182 H   0  0  0  0  0  0  0  0  0  0  0  0
    0.6216    4.6555    4.6009 H   0  0  0  0  0  0  0  0  0  0  0  0
    1.7356    3.9773    2.0944 C   0  0  0  0  0  0  0  0  0  0  0  0
    2.2321    4.7783    2.6782 H   0  0  0  0  0  0  0  0  0  0  0  0
    1.6850    4.3292    1.0451 H   0  0  0  0  0  0  0  0  0  0  0  0
    2.3817    3.0815    2.1191 H   0  0  0  0  0  0  0  0  0  0  0  0
  1  2  1  0  0  0  0
  1  7  1  0  0  0  0
  2  3  1  0  0  0  0
  2  4  1  0  0  0  0
  4  5  1  0  0  0  0
  4  6  1  0  0  0  0
  7  8  1  0  0  0  0
  4  7  1  0  0  0  0
  2  8  1  0  0  0  0
  8  9  1  0  0  0  0
  8 10  1  0  0  0  0
  7 11  1  0  0  0  0
  7 12  1  0  0  0  0
 13 14  1  0  0  0  0
 13 17  1  0  0  0  0
 14 15  1  0  0  0  0
 15 18  1  0  0  0  0
 15 16  1  0  0  0  0
 16 19  1  0  0  0  0
 16 17  1  0  0  0  0
 20 23  2  0  0  0  0
 20 22  1  0  0  0  0
 21 24  2  0  0  0  0
 21 25  1  0  0  0  0
 22 25  2  0  0  0  0
 23 24  1  0  0  0  0
 24 26  1  0  0  0  0
 25 27  1  0  0  0  0
 14 20  1  0  0  0  0
 28 29  1  0  0  0  0
 28 30  1  0  0  0  0
 28 31  1  0  0  0  0
 21 28  1  0  0  0  0
 32 33  1  0  0  0  0
 32 34  1  0  0  0  0
 32 35  1  0  0  0  0
 22 32  1  0  0  0  0
 36 37  1  0  0  0  0
 36 38  1  0  0  0  0
 36 39  1  0  0  0  0
 23 36  1  0  0  0  0
 40 43  2  0  0  0  0
 40 42  1  0  0  0  0
 41 44  2  0  0  0  0
 41 45  1  0  0  0  0
 42 45  2  0  0  0  0
 43 44  1  0  0  0  0
 44 46  1  0  0  0  0
 45 47  1  0  0  0  0
 17 40  1  0  0  0  0
 48 49  1  0  0  0  0
 48 50  1  0  0  0  0
 48 51  1  0  0  0  0
 41 48  1  0  0  0  0
 52 53  1  0  0  0  0
 52 54  1  0  0  0  0
 52 55  1  0  0  0  0
 42 52  1  0  0  0  0
 56 57  1  0  0  0  0
 56 58  1  0  0  0  0
 56 59  1  0  0  0  0
 43 56  1  0  0  0  0
 60 61  1  0  0  0  0
 60 65  1  0  0  0  0
 60 69  1  0  0  0  0
 61 62  1  0  0  0  0
 61 63  1  0  0  0  0
 61 64  1  0  0  0  0
 65 66  1  0  0  0  0
 65 67  1  0  0  0  0
 65 68  1  0  0  0  0
 69 70  1  0  0  0  0
 69 71  1  0  0  0  0
 69 72  1  0  0  0  0
 15 60  1  0  0  0  0
 73 74  1  0  0  0  0
 73 78  1  0  0  0  0
 73 82  1  0  0  0  0
 74 75  1  0  0  0  0
 74 76  1  0  0  0  0
 74 77  1  0  0  0  0
 78 79  1  0  0  0  0
 78 80  1  0  0  0  0
 78 81  1  0  0  0  0
 82 83  1  0  0  0  0
 82 84  1  0  0  0  0
 82 85  1  0  0  0  0
 16 73  1  0  0  0  0
  7 13  1  0  0  0  0
M  END
>  <DFT-ENERGY>
-2370.95322328

$$$$
