
  CDK     08152401003D

 79 83  0  0  0  0  0  0  0  0999 V2000
   -0.3425    3.8021    0.3447 H   0  0  0  0  0  0  0  0  0  0  0  0
   -1.5511    3.8926    0.1328 C   0  0  0  0  0  0  0  0  0  0  0  0
   -1.3583    4.9527   -0.1540 H   0  0  0  0  0  0  0  0  0  0  0  0
   -1.7813    2.8029   -0.8570 C   0  0  0  0  0  0  0  0  0  0  0  0
   -2.7912    2.3605   -0.8743 H   0  0  0  0  0  0  0  0  0  0  0  0
   -1.3178    2.9222   -1.8512 H   0  0  0  0  0  0  0  0  0  0  0  0
   -0.5656    2.0689    0.6487 Ru  0  0  0  0  0  0  0  0  0  0  0  0
   -2.0314    3.5014    1.4513 C   0  0  0  0  0  0  0  0  0  0  0  0
   -2.9878    2.9715    1.5359 H   0  0  0  0  0  0  0  0  0  0  0  0
   -1.7204    4.0942    2.3274 H   0  0  0  0  0  0  0  0  0  0  0  0
   -2.1886    0.5822    1.6479 Cl  0  0  0  0  0  0  0  0  0  0  0  0
    1.5247    2.8041   -0.2980 Cl  0  0  0  0  0  0  0  0  0  0  0  0
    0.2009    0.2092    0.1448 C   0  0  0  0  0  0  0  0  0  0  0  0
    0.4493   -0.1595   -1.1445 N   0  0  0  0  0  0  0  0  0  0  0  0
    1.1731   -1.4474   -1.2283 C   0  0  0  0  0  0  0  0  0  0  0  0
    1.6014   -1.6781    0.2207 C   0  0  0  0  0  0  0  0  0  0  0  0
    0.7433   -0.7329    0.9634 N   0  0  0  0  0  0  0  0  0  0  0  0
    0.4884   -2.2354   -1.6056 H   0  0  0  0  0  0  0  0  0  0  0  0
    2.0298   -1.3691   -1.9219 H   0  0  0  0  0  0  0  0  0  0  0  0
    2.6649   -1.4084    0.3977 H   0  0  0  0  0  0  0  0  0  0  0  0
    1.4435   -2.7153    0.5665 H   0  0  0  0  0  0  0  0  0  0  0  0
    0.6005   -0.9025    2.3830 C   0  0  0  0  0  0  0  0  0  0  0  0
    0.4283   -1.4020    5.1274 C   0  0  0  0  0  0  0  0  0  0  0  0
    1.3163   -0.0764    3.2777 C   0  0  0  0  0  0  0  0  0  0  0  0
   -0.2036   -1.9806    2.8391 C   0  0  0  0  0  0  0  0  0  0  0  0
   -0.2690   -2.2115    4.2230 C   0  0  0  0  0  0  0  0  0  0  0  0
    1.2074   -0.3418    4.6558 C   0  0  0  0  0  0  0  0  0  0  0  0
   -0.8901   -3.0369    4.6003 H   0  0  0  0  0  0  0  0  0  0  0  0
    1.7480    0.2962    5.3694 H   0  0  0  0  0  0  0  0  0  0  0  0
   -0.2584    0.3161   -2.3051 C   0  0  0  0  0  0  0  0  0  0  0  0
   -1.6234    1.2069   -4.5796 C   0  0  0  0  0  0  0  0  0  0  0  0
    0.4582    1.0081   -3.3136 C   0  0  0  0  0  0  0  0  0  0  0  0
   -1.6359   -0.0086   -2.4561 C   0  0  0  0  0  0  0  0  0  0  0  0
   -2.2981    0.4676   -3.6020 C   0  0  0  0  0  0  0  0  0  0  0  0
   -0.2549    1.4561   -4.4418 C   0  0  0  0  0  0  0  0  0  0  0  0
   -3.3659    0.2440   -3.7324 H   0  0  0  0  0  0  0  0  0  0  0  0
    0.2793    2.0086   -5.2275 H   0  0  0  0  0  0  0  0  0  0  0  0
   -2.3820   -0.9172   -1.4863 C   0  0  0  0  0  0  0  0  0  0  0  0
   -1.8630   -0.8870   -0.5094 H   0  0  0  0  0  0  0  0  0  0  0  0
    1.9662    1.2093   -3.2547 C   0  0  0  0  0  0  0  0  0  0  0  0
    2.2819    1.0223   -2.2094 H   0  0  0  0  0  0  0  0  0  0  0  0
   -0.9843   -2.8836    1.8911 C   0  0  0  0  0  0  0  0  0  0  0  0
   -0.8946   -2.4581    0.8716 H   0  0  0  0  0  0  0  0  0  0  0  0
    2.1131    1.1205    2.7926 C   0  0  0  0  0  0  0  0  0  0  0  0
    2.2446    1.0356    1.6958 H   0  0  0  0  0  0  0  0  0  0  0  0
    2.3930    2.6411   -3.6109 C   0  0  0  0  0  0  0  0  0  0  0  0
    3.4845    2.7605   -3.4563 H   0  0  0  0  0  0  0  0  0  0  0  0
    1.8745    3.3778   -2.9695 H   0  0  0  0  0  0  0  0  0  0  0  0
    2.1853    2.8803   -4.6746 H   0  0  0  0  0  0  0  0  0  0  0  0
    2.6656    0.1999   -4.1874 C   0  0  0  0  0  0  0  0  0  0  0  0
    3.7684    0.2869   -4.1023 H   0  0  0  0  0  0  0  0  0  0  0  0
    2.3919    0.3882   -5.2467 H   0  0  0  0  0  0  0  0  0  0  0  0
    2.3826   -0.8484   -3.9617 H   0  0  0  0  0  0  0  0  0  0  0  0
   -3.8275   -0.4795   -1.2134 C   0  0  0  0  0  0  0  0  0  0  0  0
   -4.2669   -1.1251   -0.4274 H   0  0  0  0  0  0  0  0  0  0  0  0
   -4.4695   -0.5677   -2.1145 H   0  0  0  0  0  0  0  0  0  0  0  0
   -3.8710    0.5598   -0.8398 H   0  0  0  0  0  0  0  0  0  0  0  0
   -2.3728   -2.3677   -2.0108 C   0  0  0  0  0  0  0  0  0  0  0  0
   -2.8481   -3.0486   -1.2747 H   0  0  0  0  0  0  0  0  0  0  0  0
   -1.3476   -2.7399   -2.2085 H   0  0  0  0  0  0  0  0  0  0  0  0
   -2.9372   -2.4458   -2.9636 H   0  0  0  0  0  0  0  0  0  0  0  0
   -0.4053   -4.3111    1.8799 C   0  0  0  0  0  0  0  0  0  0  0  0
   -0.5271   -4.7938    2.8717 H   0  0  0  0  0  0  0  0  0  0  0  0
    0.6786   -4.3260    1.6437 H   0  0  0  0  0  0  0  0  0  0  0  0
   -0.9299   -4.9411    1.1326 H   0  0  0  0  0  0  0  0  0  0  0  0
   -2.4840   -2.9179    2.2290 C   0  0  0  0  0  0  0  0  0  0  0  0
   -2.6666   -3.3740    3.2239 H   0  0  0  0  0  0  0  0  0  0  0  0
   -3.0286   -3.5293    1.4799 H   0  0  0  0  0  0  0  0  0  0  0  0
   -2.9093   -1.8970    2.2267 H   0  0  0  0  0  0  0  0  0  0  0  0
    3.5086    1.2222    3.4236 C   0  0  0  0  0  0  0  0  0  0  0  0
    4.0660    2.0691    2.9755 H   0  0  0  0  0  0  0  0  0  0  0  0
    4.0952    0.2964    3.2577 H   0  0  0  0  0  0  0  0  0  0  0  0
    3.4611    1.4006    4.5177 H   0  0  0  0  0  0  0  0  0  0  0  0
    1.2904    2.3913    3.0498 C   0  0  0  0  0  0  0  0  0  0  0  0
    1.7700    3.2820    2.6019 H   0  0  0  0  0  0  0  0  0  0  0  0
    1.1351    2.5544    4.1371 H   0  0  0  0  0  0  0  0  0  0  0  0
    0.2517    2.3077    2.6209 H   0  0  0  0  0  0  0  0  0  0  0  0
    0.3598   -1.5980    6.2074 H   0  0  0  0  0  0  0  0  0  0  0  0
   -2.1649    1.5743   -5.4638 H   0  0  0  0  0  0  0  0  0  0  0  0
  1  2  1  0  0  0  0
  1  7  1  0  0  0  0
  2  3  1  0  0  0  0
  2  4  1  0  0  0  0
  4  5  1  0  0  0  0
  6  4  1  0  0  0  0
  7  8  1  0  0  0  0
  7  4  1  0  0  0  0
  8  2  1  0  0  0  0
  8  9  1  0  0  0  0
 10  8  1  0  0  0  0
  7 11  1  0  0  0  0
  7 12  1  0  0  0  0
 13 14  1  0  0  0  0
 13 17  1  0  0  0  0
 14 15  1  0  0  0  0
 15 18  1  0  0  0  0
 15 19  1  0  0  0  0
 15 16  1  0  0  0  0
 16 20  1  0  0  0  0
 16 21  1  0  0  0  0
 16 17  1  0  0  0  0
 22 25  2  0  0  0  0
 25 26  1  0  0  0  0
 23 26  2  0  0  0  0
 23 27  1  0  0  0  0
 24 27  2  0  0  0  0
 22 24  1  0  0  0  0
 26 28  1  0  0  0  0
 27 29  1  0  0  0  0
 17 22  1  0  0  0  0
 30 33  2  0  0  0  0
 33 34  1  0  0  0  0
 31 34  2  0  0  0  0
 31 35  1  0  0  0  0
 32 35  2  0  0  0  0
 30 32  1  0  0  0  0
 34 36  1  0  0  0  0
 35 37  1  0  0  0  0
 14 30  1  0  0  0  0
 38 39  1  0  0  0  0
 33 38  1  0  0  0  0
 40 41  1  0  0  0  0
 32 40  1  0  0  0  0
 42 43  1  0  0  0  0
 25 42  1  0  0  0  0
 44 45  1  0  0  0  0
 24 44  1  0  0  0  0
 46 47  1  0  0  0  0
 46 48  1  0  0  0  0
 46 49  1  0  0  0  0
 40 46  1  0  0  0  0
 50 51  1  0  0  0  0
 50 52  1  0  0  0  0
 50 53  1  0  0  0  0
 40 50  1  0  0  0  0
 54 55  1  0  0  0  0
 54 56  1  0  0  0  0
 54 57  1  0  0  0  0
 38 54  1  0  0  0  0
 58 59  1  0  0  0  0
 58 60  1  0  0  0  0
 58 61  1  0  0  0  0
 38 58  1  0  0  0  0
 62 63  1  0  0  0  0
 62 64  1  0  0  0  0
 62 65  1  0  0  0  0
 42 62  1  0  0  0  0
 66 67  1  0  0  0  0
 66 68  1  0  0  0  0
 66 69  1  0  0  0  0
 42 66  1  0  0  0  0
 70 71  1  0  0  0  0
 70 72  1  0  0  0  0
 70 73  1  0  0  0  0
 44 70  1  0  0  0  0
 74 75  1  0  0  0  0
 74 76  1  0  0  0  0
 74 77  1  0  0  0  0
 44 74  1  0  0  0  0
 23 78  1  0  0  0  0
 31 79  1  0  0  0  0
  7 13  1  0  0  0  0
M  END
>  <DFT-ENERGY>
-2292.41928826

$$$$
