CEBHEWMODN5_A2
  CDK     02052410523D

 60 64  0  0  0  0  0  0  0  0999 V2000
   -0.5619    0.1221   -0.6470 Ru  0  0  0  0  0  0  0  0  0  0  0  0
   -2.3363    0.0126   -2.0362 O   0  0  0  0  0  0  0  0  0  0  0  0
   -1.7123   -0.8840    0.3571 C   0  0  0  0  0  0  0  0  0  0  0  0
   -1.4619   -1.1620    1.3798 H   0  0  0  0  0  0  0  0  0  0  0  0
   -2.6191    0.7718   -3.2620 C   0  0  0  0  0  0  0  0  0  0  0  0
   -2.9847    0.0522   -4.0247 H   0  0  0  0  0  0  0  0  0  0  0  0
   -1.2241    1.2966   -3.5786 C   0  0  0  0  0  0  0  0  0  0  0  0
   -0.4913    0.4649   -3.5925 H   0  0  0  0  0  0  0  0  0  0  0  0
   -1.1878    1.7981   -4.5497 H   0  0  0  0  0  0  0  0  0  0  0  0
   -0.8843    2.0192   -2.8110 H   0  0  0  0  0  0  0  0  0  0  0  0
   -3.6240    1.8611   -2.9329 C   0  0  0  0  0  0  0  0  0  0  0  0
   -3.3353    2.3704   -1.9928 H   0  0  0  0  0  0  0  0  0  0  0  0
   -3.6682    2.6259   -3.7149 H   0  0  0  0  0  0  0  0  0  0  0  0
   -4.6353    1.4704   -2.7792 H   0  0  0  0  0  0  0  0  0  0  0  0
   -3.2775   -0.8454   -1.5312 C   0  0  0  0  0  0  0  0  0  0  0  0
   -4.4229   -1.2655   -2.1842 C   0  0  0  0  0  0  0  0  0  0  0  0
   -4.6628   -0.9290   -3.1902 H   0  0  0  0  0  0  0  0  0  0  0  0
   -5.2712   -2.1505   -1.5267 C   0  0  0  0  0  0  0  0  0  0  0  0
   -6.1746   -2.4944   -2.0353 H   0  0  0  0  0  0  0  0  0  0  0  0
   -4.9926   -2.6059   -0.2414 C   0  0  0  0  0  0  0  0  0  0  0  0
   -5.6766   -3.2936    0.2533 H   0  0  0  0  0  0  0  0  0  0  0  0
   -3.8473   -2.1742    0.4002 C   0  0  0  0  0  0  0  0  0  0  0  0
   -3.6335   -2.5147    1.4122 H   0  0  0  0  0  0  0  0  0  0  0  0
   -2.9638   -1.3026   -0.2392 C   0  0  0  0  0  0  0  0  0  0  0  0
   -1.2819    2.2332   -0.0971 Cl  0  0  0  0  0  0  0  0  0  0  0  0
    0.3722   -1.5431   -2.0171 Cl  0  0  0  0  0  0  0  0  0  0  0  0
    1.1073    0.1011    0.7902 P   0  0  0  0  0  0  0  0  0  0  0  0
    1.9424   -3.9535    0.9952 C   0  0  0  0  0  0  0  0  0  0  0  0
    0.8047    0.7228    2.5343 C   0  0  0  0  0  0  0  0  0  0  0  0
    3.2566   -1.5658    1.6337 C   0  0  0  0  0  0  0  0  0  0  0  0
    1.3039   -2.7246    0.7753 C   0  0  0  0  0  0  0  0  0  0  0  0
    2.5100    1.1769    0.1567 C   0  0  0  0  0  0  0  0  0  0  0  0
    1.9651   -1.5406    1.1006 C   0  0  0  0  0  0  0  0  0  0  0  0
    0.4727    2.0673    2.7164 C   0  0  0  0  0  0  0  0  0  0  0  0
    3.8893   -2.7941    1.8515 C   0  0  0  0  0  0  0  0  0  0  0  0
    2.6919    1.2156   -1.2276 C   0  0  0  0  0  0  0  0  0  0  0  0
    0.8997   -0.1419    3.6259 C   0  0  0  0  0  0  0  0  0  0  0  0
    4.3833    2.6638    0.4727 C   0  0  0  0  0  0  0  0  0  0  0  0
    3.7360    1.9816   -1.7613 C   0  0  0  0  0  0  0  0  0  0  0  0
    0.2424    2.5515    4.0101 C   0  0  0  0  0  0  0  0  0  0  0  0
    0.3396    1.6929    5.1092 C   0  0  0  0  0  0  0  0  0  0  0  0
    0.6666    0.3469    4.9171 C   0  0  0  0  0  0  0  0  0  0  0  0
    3.3445    1.8953    1.0127 C   0  0  0  0  0  0  0  0  0  0  0  0
    4.5798    2.7042   -0.9115 C   0  0  0  0  0  0  0  0  0  0  0  0
    3.2317   -3.9877    1.5314 C   0  0  0  0  0  0  0  0  0  0  0  0
    1.4337   -4.8800    0.7321 H   0  0  0  0  0  0  0  0  0  0  0  0
    3.7949   -0.6488    1.8820 H   0  0  0  0  0  0  0  0  0  0  0  0
    0.2972   -2.7283    0.3350 H   0  0  0  0  0  0  0  0  0  0  0  0
    0.3756    2.7605    1.8719 H   0  0  0  0  0  0  0  0  0  0  0  0
    4.8964   -2.8217    2.2628 H   0  0  0  0  0  0  0  0  0  0  0  0
    2.0421    0.6537   -1.9166 H   0  0  0  0  0  0  0  0  0  0  0  0
    1.1540   -1.1984    3.5075 H   0  0  0  0  0  0  0  0  0  0  0  0
    5.0379    3.2312    1.1320 H   0  0  0  0  0  0  0  0  0  0  0  0
    3.8898    2.0128   -2.8390 H   0  0  0  0  0  0  0  0  0  0  0  0
   -0.0217    3.5981    4.1557 H   0  0  0  0  0  0  0  0  0  0  0  0
    0.1573    2.0713    6.1144 H   0  0  0  0  0  0  0  0  0  0  0  0
    0.7391   -0.3233    5.7717 H   0  0  0  0  0  0  0  0  0  0  0  0
    3.2069    1.8823    2.0964 H   0  0  0  0  0  0  0  0  0  0  0  0
    5.3906    3.3007   -1.3289 H   0  0  0  0  0  0  0  0  0  0  0  0
    3.7289   -4.9432    1.6954 H   0  0  0  0  0  0  0  0  0  0  0  0
  2  1  1  0  0  0  0
  3  1  2  0  0  0  0
  4  3  1  0  0  0  0
  5  2  1  0  0  0  0
  6  5  1  0  0  0  0
  7  5  1  0  0  0  0
  8  7  1  0  0  0  0
  9  7  1  0  0  0  0
 10  7  1  0  0  0  0
 11  5  1  0  0  0  0
 12 11  1  0  0  0  0
 13 11  1  0  0  0  0
 14 11  1  0  0  0  0
 15  2  1  0  0  0  0
 15 24  1  0  0  0  0
 16 15  2  0  0  0  0
 17 16  1  0  0  0  0
 18 16  1  0  0  0  0
 19 18  1  0  0  0  0
 20 18  2  0  0  0  0
 21 20  1  0  0  0  0
 22 20  1  0  0  0  0
 22 24  2  0  0  0  0
 23 22  1  0  0  0  0
 24  3  1  0  0  0  0
  1 25  1  0  0  0  0
  1 26  1  0  0  0  0
 28 31  1  0  0  0  0
 29 27  1  0  0  0  0
 30 33  1  0  0  0  0
 31 33  2  0  0  0  0
 32 27  1  0  0  0  0
 33 27  1  0  0  0  0
 34 29  1  0  0  0  0
 35 30  2  0  0  0  0
 36 32  2  0  0  0  0
 37 29  2  0  0  0  0
 38 43  2  0  0  0  0
 39 36  1  0  0  0  0
 40 34  2  0  0  0  0
 41 40  1  0  0  0  0
 42 37  1  0  0  0  0
 43 32  1  0  0  0  0
 44 38  1  0  0  0  0
 45 28  2  0  0  0  0
 46 28  1  0  0  0  0
 47 30  1  0  0  0  0
 48 31  1  0  0  0  0
 49 34  1  0  0  0  0
 50 35  1  0  0  0  0
 51 36  1  0  0  0  0
 52 37  1  0  0  0  0
 53 38  1  0  0  0  0
 54 39  1  0  0  0  0
 55 40  1  0  0  0  0
 56 41  1  0  0  0  0
 57 42  1  0  0  0  0
 58 43  1  0  0  0  0
 59 44  1  0  0  0  0
 60 45  1  0  0  0  0
 35 45  1  0  0  0  0
 39 44  2  0  0  0  0
 41 42  2  0  0  0  0
  1 27  1  0  0  0  0
M  END
> <FrozenCore-PM6_ENERGY>
740.001

> <RMSD_CONF_CG-CS>
0.879095

> <RMSD_CONF_GO-CS>
0.000000

> <UID>


> <freeEnergyA>
-2513.17697719

> <freeEnergyF>
-2513.15935465

> <freeEnergyE>
-2513.17697719

> <freeEnergyC>
-2167.8865841

> <freeEnergyL>
-1035.34018229

> <freeEnergyX>
-2246.43500662

> <freeEnergyZ>
-2167.89988666

> <freeEnergyD>
-2167.9202635

> <G_Propene>
-117.738020895

> <G_Ethene>
-78.4716324751

> <G_HoveydaProd>
-502.204109499

> <G_SIMes>
-924.27249048

> <G_HG_RuCl2_SIMes>
-2402.13728523

> <DG_referenceProductionBarrier>
0.01468968

> <hartree_to_kcalmol>
627.49467516

> <DFT_IDENTIFIER>
1707190816228

> <DFT_MACHINE>
158.36.42.38

> <XTB_IDENTIFIER>
NREC

> <XTB_MACHINE>
NREC

> <DE_Synth>
17.5697567802787260

> <DESCRIPTOR_DEFINITION_1>
desc1=( echo "1 * ( e( $hartree_to_kcalmol * ( ( $freeEnergyZ - $freeEnergyD ) - ( $freeEnergyX + 2*$G_Ethene - $freeEnergyD - 2*$G_Propene ) - $DDG_reference_HGII ) / $kT ) ) " | bc -l )

> <DESCRIPTOR_DEFINITION_2>
desc2=$( echo "1 * ( $hartree_to_kcalmol * ( ( $freeEnergyZ - $freeEnergyD ) - ( $freeEnergyX + 2*$G_Ethene - $freeEnergyD - 2*$G_Propene ) ) )" | bc -l )

> <DESCRIPTOR_DEFINITION_3>
desc3=$( echo "1 * $hartree_to_kcalmol * ( $DG_referenceProductionBarrier - ( $freeEnergyX + 2*$G_Ethene - $freeEnergyD - 2*$G_Propene ) )" | bc -l )

> <WEIGHT_DEFINITION_1>
w1=$( echo "1 / ( 1 + e( $hartree_to_kcalmol * ( ( ( $freeEnergyX + 2*$G_Ethene - $freeEnergyD - 2*$G_Propene ) ) - ( $DG_referenceProductionBarrier + $magnitude4 ) ) / $kT ) )" | bc -l )

> <WEIGHT_DEFINITION_2>
w2=$( echo "1 / ( 1 + e( $hartree_to_kcalmol * ( ABS( $freeEnergyC + $G_HoveydaProd - $freeEnergyA - 2*${G_Ethene} - $DG_referencePrecursorStabilityHII ) - ( $DDG_referencePrecursorStability + $magnitude1 ) ) / $kT ) )" | bc -l )

> <WEIGHT_DEFINITION_3>
w3=$( echo "1 / ( 1 + e( $hartree_to_kcalmol * ( ( $freeEnergyE + $G_SIMes - $G_HG_RuCl2_SIMes - $freeEnergyL ) - ( $DG_referenceSynt  + $magnitude1 ) ) / $kT ) )" | bc -l )

> <WEIGHT_DEFINITION_4>
w4=$( echo "1 / ( 1 + e( $hartree_to_kcalmol * ( - ( $freeEnergyF - $freeEnergyA ) + $magnitude2 ) / $kT ) )" | bc -l )

> <FITNESS_DEFINITION>
fitness=$( echo "( $desc1 + $desc2 + $desc3 ) * $w1 * $w2 * $w3 * $w4" | bc -l )

> <DESCRIPTOR_1>
.00000000195299942119

> <DESCRIPTOR_2>
1.470295448759834232

> <DESCRIPTOR_3>
2.659137322398907800

> <WEIGHT_1>
.99999860593501684915

> <WEIGHT_2>
.00000016513070743935

> <WEIGHT_3>
.04168648540281918503

> <WEIGHT_4>
.99999808205483669080

> <FITNESS>
.00000002842575997113

$$$$
