
  CDK     08132414133D

 53 57  0  0  0  0  0  0  0  0999 V2000
    0.6348   -0.0608   -3.0412 H   0  0  0  0  0  0  0  0  0  0  0  0
    1.8126   -0.3718   -3.2143 C   0  0  0  0  0  0  0  0  0  0  0  0
    1.6727   -0.2833   -4.3124 H   0  0  0  0  0  0  0  0  0  0  0  0
    2.4776    0.6771   -2.3923 C   0  0  0  0  0  0  0  0  0  0  0  0
    3.4554    0.4429   -1.9433 H   0  0  0  0  0  0  0  0  0  0  0  0
    2.3391    1.7194   -2.7276 H   0  0  0  0  0  0  0  0  0  0  0  0
    0.9026   -0.1152   -1.2885 Ru  0  0  0  0  0  0  0  0  0  0  0  0
    1.7581   -1.6551   -2.4818 C   0  0  0  0  0  0  0  0  0  0  0  0
    2.6787   -2.0423   -2.0260 H   0  0  0  0  0  0  0  0  0  0  0  0
    1.0464   -2.4130   -2.8535 H   0  0  0  0  0  0  0  0  0  0  0  0
    2.6576   -0.9087    0.2142 Cl  0  0  0  0  0  0  0  0  0  0  0  0
   -0.5903    1.6174   -1.9623 Cl  0  0  0  0  0  0  0  0  0  0  0  0
    0.1482    0.2298    0.5780 C   0  0  0  0  0  0  0  0  0  0  0  0
   -0.8539   -0.5211    1.1274 N   0  0  0  0  0  0  0  0  0  0  0  0
   -1.2101   -0.0165    2.3784 C   0  0  0  0  0  0  0  0  0  0  0  0
   -0.4091    1.0737    2.6008 C   0  0  0  0  0  0  0  0  0  0  0  0
    0.4133    1.2063    1.4840 N   0  0  0  0  0  0  0  0  0  0  0  0
   -1.4470   -1.6463    0.4451 C   0  0  0  0  0  0  0  0  0  0  0  0
   -2.5517   -3.8088   -0.9520 C   0  0  0  0  0  0  0  0  0  0  0  0
   -2.6067   -1.4295   -0.3329 C   0  0  0  0  0  0  0  0  0  0  0  0
   -0.8624   -2.9234    0.6017 C   0  0  0  0  0  0  0  0  0  0  0  0
   -1.4319   -3.9866   -0.1204 C   0  0  0  0  0  0  0  0  0  0  0  0
   -3.1343   -2.5315   -1.0283 C   0  0  0  0  0  0  0  0  0  0  0  0
   -0.9877   -4.9886   -0.0164 H   0  0  0  0  0  0  0  0  0  0  0  0
   -4.0343   -2.3818   -1.6445 H   0  0  0  0  0  0  0  0  0  0  0  0
    0.3066   -3.1438    1.5200 C   0  0  0  0  0  0  0  0  0  0  0  0
    0.1000   -2.7522    2.5373 H   0  0  0  0  0  0  0  0  0  0  0  0
    1.2099   -2.6094    1.1538 H   0  0  0  0  0  0  0  0  0  0  0  0
    0.5396   -4.2216    1.6045 H   0  0  0  0  0  0  0  0  0  0  0  0
   -3.2605   -0.0774   -0.4072 C   0  0  0  0  0  0  0  0  0  0  0  0
   -4.2102   -0.1332   -0.9709 H   0  0  0  0  0  0  0  0  0  0  0  0
   -2.5942    0.6554   -0.9107 H   0  0  0  0  0  0  0  0  0  0  0  0
   -3.4801    0.3259    0.6025 H   0  0  0  0  0  0  0  0  0  0  0  0
   -3.1122   -4.9611   -1.7471 C   0  0  0  0  0  0  0  0  0  0  0  0
   -2.9440   -5.9294   -1.2366 H   0  0  0  0  0  0  0  0  0  0  0  0
   -2.6231   -5.0272   -2.7427 H   0  0  0  0  0  0  0  0  0  0  0  0
   -4.1991   -4.8445   -1.9247 H   0  0  0  0  0  0  0  0  0  0  0  0
   -0.3574    1.7576    3.4500 H   0  0  0  0  0  0  0  0  0  0  0  0
   -1.9905   -0.4808    2.9843 H   0  0  0  0  0  0  0  0  0  0  0  0
    1.4301    2.2349    1.2635 C   0  0  0  0  0  0  0  0  0  0  0  0
    0.8706    3.6621    1.1670 C   0  0  0  0  0  0  0  0  0  0  0  0
    2.1424    4.5019    1.3325 C   0  0  0  0  0  0  0  0  0  0  0  0
    2.9026    3.7921    2.4763 C   0  0  0  0  0  0  0  0  0  0  0  0
    2.5296    2.2893    2.3535 C   0  0  0  0  0  0  0  0  0  0  0  0
    1.8768    1.9535    0.2887 H   0  0  0  0  0  0  0  0  0  0  0  0
    0.1700    3.8550    2.0097 H   0  0  0  0  0  0  0  0  0  0  0  0
    0.3234    3.8275    0.2193 H   0  0  0  0  0  0  0  0  0  0  0  0
    2.7350    4.4570    0.3937 H   0  0  0  0  0  0  0  0  0  0  0  0
    1.9393    5.5702    1.5412 H   0  0  0  0  0  0  0  0  0  0  0  0
    2.5617    4.1915    3.4540 H   0  0  0  0  0  0  0  0  0  0  0  0
    3.9951    3.9648    2.4261 H   0  0  0  0  0  0  0  0  0  0  0  0
    2.1456    1.8877    3.3126 H   0  0  0  0  0  0  0  0  0  0  0  0
    3.3797    1.6445    2.0612 H   0  0  0  0  0  0  0  0  0  0  0  0
  1  2  1  0  0  0  0
  1  7  1  0  0  0  0
  2  3  1  0  0  0  0
  2  4  1  0  0  0  0
  4  5  1  0  0  0  0
  6  4  1  0  0  0  0
  7  8  1  0  0  0  0
  7  4  1  0  0  0  0
  8  2  1  0  0  0  0
  8  9  1  0  0  0  0
 10  8  1  0  0  0  0
  7 11  1  0  0  0  0
  7 12  1  0  0  0  0
 13 14  1  0  0  0  0
 13 17  1  0  0  0  0
 14 15  1  0  0  0  0
 14 18  1  0  0  0  0
 15 16  2  0  0  0  0
 15 39  1  0  0  0  0
 16 17  1  0  0  0  0
 16 38  1  0  0  0  0
 17 40  1  0  0  0  0
 18 21  2  0  0  0  0
 18 20  1  0  0  0  0
 19 22  2  0  0  0  0
 19 23  1  0  0  0  0
 19 34  1  0  0  0  0
 20 23  2  0  0  0  0
 20 30  1  0  0  0  0
 21 22  1  0  0  0  0
 21 26  1  0  0  0  0
 22 24  1  0  0  0  0
 23 25  1  0  0  0  0
 26 27  1  0  0  0  0
 26 28  1  0  0  0  0
 26 29  1  0  0  0  0
 30 31  1  0  0  0  0
 30 32  1  0  0  0  0
 30 33  1  0  0  0  0
 34 35  1  0  0  0  0
 34 36  1  0  0  0  0
 34 37  1  0  0  0  0
 40 45  1  0  0  0  0
 40 41  1  0  0  0  0
 40 44  1  0  0  0  0
 41 46  1  0  0  0  0
 41 47  1  0  0  0  0
 41 42  1  0  0  0  0
 42 48  1  0  0  0  0
 42 49  1  0  0  0  0
 42 43  1  0  0  0  0
 43 50  1  0  0  0  0
 43 51  1  0  0  0  0
 43 44  1  0  0  0  0
 44 52  1  0  0  0  0
 44 53  1  0  0  0  0
  7 13  1  0  0  0  0
M  END
>  <DFT-ENERGY>
-1902.19972694

$$$$
