CpMes-5_A2
  CDK     08122413203D

 67 71  0  0  0  0  0  0  0  0999 V2000
    0.5550    0.1458   -0.4858 Ru  0  0  0  0  0  0  0  0  0  0  0  0
    2.3328    0.1458   -1.8750 O   0  0  0  0  0  0  0  0  0  0  0  0
    1.7652    1.0791    0.5183 C   0  0  0  0  0  0  0  0  0  0  0  0
    1.5324    1.3720    1.5410 H   0  0  0  0  0  0  0  0  0  0  0  0
    2.5683   -0.6294   -3.1008 C   0  0  0  0  0  0  0  0  0  0  0  0
    3.0125    0.0618   -3.8490 H   0  0  0  0  0  0  0  0  0  0  0  0
    1.1440   -1.0294   -3.4573 C   0  0  0  0  0  0  0  0  0  0  0  0
    1.0925   -1.5412   -4.4217 H   0  0  0  0  0  0  0  0  0  0  0  0
    0.7083   -1.7044   -2.6860 H   0  0  0  0  0  0  0  0  0  0  0  0
    0.4918   -0.1342   -3.5009 H   0  0  0  0  0  0  0  0  0  0  0  0
    3.4712   -1.7988   -2.7542 C   0  0  0  0  0  0  0  0  0  0  0  0
    3.4625   -2.5688   -3.5318 H   0  0  0  0  0  0  0  0  0  0  0  0
    4.5094   -1.4941   -2.5844 H   0  0  0  0  0  0  0  0  0  0  0  0
    3.1265   -2.2779   -1.8157 H   0  0  0  0  0  0  0  0  0  0  0  0
    3.3250    0.9442   -1.3700 C   0  0  0  0  0  0  0  0  0  0  0  0
    4.4941    1.2929   -2.0230 C   0  0  0  0  0  0  0  0  0  0  0  0
    4.7134    0.9412   -3.0285 H   0  0  0  0  0  0  0  0  0  0  0  0
    5.3953    2.1240   -1.3655 C   0  0  0  0  0  0  0  0  0  0  0  0
    6.3180    2.4115   -1.8743 H   0  0  0  0  0  0  0  0  0  0  0  0
    5.1453    2.5956   -0.0802 C   0  0  0  0  0  0  0  0  0  0  0  0
    5.8702    3.2402    0.4141 H   0  0  0  0  0  0  0  0  0  0  0  0
    3.9756    2.2353    0.5614 C   0  0  0  0  0  0  0  0  0  0  0  0
    3.7824    2.5899    1.5727 H   0  0  0  0  0  0  0  0  0  0  0  0
    3.0401    1.4199   -0.0780 C   0  0  0  0  0  0  0  0  0  0  0  0
    1.1578   -2.0577    0.0774 Cl  0  0  0  0  0  0  0  0  0  0  0  0
   -0.2539    1.8222   -1.8215 Cl  0  0  0  0  0  0  0  0  0  0  0  0
   -1.0316    0.1184    0.6730 C   0  0  0  0  0  0  0  0  0  0  0  0
   -1.3304    0.4832    1.9893 N   0  0  0  0  0  0  0  0  0  0  0  0
   -2.6700    0.1182    2.3222 C   0  0  0  0  0  0  0  0  0  0  0  0
   -3.2237   -0.4624    1.2074 C   0  0  0  0  0  0  0  0  0  0  0  0
   -2.2355   -0.4490    0.1879 N   0  0  0  0  0  0  0  0  0  0  0  0
   -0.4845    1.1467    2.9500 C   0  0  0  0  0  0  0  0  0  0  0  0
    0.9835    2.4558    4.9354 C   0  0  0  0  0  0  0  0  0  0  0  0
    0.2251    0.3826    3.9045 C   0  0  0  0  0  0  0  0  0  0  0  0
   -0.4015    2.5609    2.9343 C   0  0  0  0  0  0  0  0  0  0  0  0
    0.3258    3.2005    3.9426 C   0  0  0  0  0  0  0  0  0  0  0  0
    0.9445    1.0555    4.9010 C   0  0  0  0  0  0  0  0  0  0  0  0
    0.3855    4.2868    3.9555 H   0  0  0  0  0  0  0  0  0  0  0  0
    1.4826    0.4796    5.6513 H   0  0  0  0  0  0  0  0  0  0  0  0
   -1.0443    3.3374    1.8365 C   0  0  0  0  0  0  0  0  0  0  0  0
   -2.1394    3.2371    1.8492 H   0  0  0  0  0  0  0  0  0  0  0  0
   -0.7085    2.9707    0.8412 H   0  0  0  0  0  0  0  0  0  0  0  0
   -0.8126    4.4091    1.8714 H   0  0  0  0  0  0  0  0  0  0  0  0
    0.2319   -1.1047    3.8245 C   0  0  0  0  0  0  0  0  0  0  0  0
   -0.7726   -1.5302    3.9603 H   0  0  0  0  0  0  0  0  0  0  0  0
    0.8922   -1.5751    4.5632 H   0  0  0  0  0  0  0  0  0  0  0  0
    0.5809   -1.4424    2.8242 H   0  0  0  0  0  0  0  0  0  0  0  0
    1.7313    3.1676    6.0146 C   0  0  0  0  0  0  0  0  0  0  0  0
    2.4925    3.8433    5.5976 H   0  0  0  0  0  0  0  0  0  0  0  0
    2.2499    2.4836    6.6993 H   0  0  0  0  0  0  0  0  0  0  0  0
    1.0541    3.7830    6.6255 H   0  0  0  0  0  0  0  0  0  0  0  0
   -4.2071   -0.8714    1.0564 H   0  0  0  0  0  0  0  0  0  0  0  0
   -3.0879    0.3068    3.2935 H   0  0  0  0  0  0  0  0  0  0  0  0
   -2.4039   -0.9517   -1.2052 C   0  0  0  0  0  0  0  0  0  0  0  0
   -1.6800   -2.3062   -1.4053 C   0  0  0  0  0  0  0  0  0  0  0  0
   -2.6156   -3.1938   -2.2420 C   0  0  0  0  0  0  0  0  0  0  0  0
   -3.8452   -2.3416   -2.6096 C   0  0  0  0  0  0  0  0  0  0  0  0
   -3.8778   -1.1723   -1.6122 C   0  0  0  0  0  0  0  0  0  0  0  0
   -1.9480   -0.1700   -1.8865 H   0  0  0  0  0  0  0  0  0  0  0  0
   -1.4307   -2.7853   -0.4373 H   0  0  0  0  0  0  0  0  0  0  0  0
   -0.6969   -2.1505   -1.9091 H   0  0  0  0  0  0  0  0  0  0  0  0
   -2.1082   -3.5711   -3.1455 H   0  0  0  0  0  0  0  0  0  0  0  0
   -2.9175   -4.0857   -1.6647 H   0  0  0  0  0  0  0  0  0  0  0  0
   -4.7748   -2.9322   -2.5686 H   0  0  0  0  0  0  0  0  0  0  0  0
   -3.7614   -1.9656   -3.6451 H   0  0  0  0  0  0  0  0  0  0  0  0
   -4.5122   -1.4306   -0.7446 H   0  0  0  0  0  0  0  0  0  0  0  0
   -4.3124   -0.2608   -2.0550 H   0  0  0  0  0  0  0  0  0  0  0  0
  1  2  1  0  0  0  0
  1  3  2  0  0  0  0
  3  4  1  0  0  0  0
  2  5  1  0  0  0  0
  5  6  1  0  0  0  0
  5  7  1  0  0  0  0
  7  8  1  0  0  0  0
  7  9  1  0  0  0  0
  7 10  1  0  0  0  0
  5 11  1  0  0  0  0
 11 12  1  0  0  0  0
 11 13  1  0  0  0  0
 11 14  1  0  0  0  0
  2 15  1  0  0  0  0
 15 24  1  0  0  0  0
 15 16  2  0  0  0  0
 16 17  1  0  0  0  0
 16 18  1  0  0  0  0
 18 19  1  0  0  0  0
 18 20  2  0  0  0  0
 20 21  1  0  0  0  0
 20 22  1  0  0  0  0
 22 24  2  0  0  0  0
 22 23  1  0  0  0  0
  3 24  1  0  0  0  0
  1 25  1  0  0  0  0
  1 26  1  0  0  0  0
 27 28  1  0  0  0  0
 27 31  1  0  0  0  0
 28 29  1  0  0  0  0
 28 32  1  0  0  0  0
 29 30  2  0  0  0  0
 29 53  1  0  0  0  0
 30 31  1  0  0  0  0
 30 52  1  0  0  0  0
 31 54  1  0  0  0  0
 32 35  2  0  0  0  0
 32 34  1  0  0  0  0
 33 36  2  0  0  0  0
 33 37  1  0  0  0  0
 33 48  1  0  0  0  0
 34 37  2  0  0  0  0
 34 44  1  0  0  0  0
 35 36  1  0  0  0  0
 35 40  1  0  0  0  0
 36 38  1  0  0  0  0
 37 39  1  0  0  0  0
 40 41  1  0  0  0  0
 40 42  1  0  0  0  0
 40 43  1  0  0  0  0
 44 45  1  0  0  0  0
 44 46  1  0  0  0  0
 44 47  1  0  0  0  0
 48 49  1  0  0  0  0
 48 50  1  0  0  0  0
 48 51  1  0  0  0  0
 54 59  1  0  0  0  0
 54 55  1  0  0  0  0
 54 58  1  0  0  0  0
 55 60  1  0  0  0  0
 55 61  1  0  0  0  0
 55 56  1  0  0  0  0
 56 62  1  0  0  0  0
 56 63  1  0  0  0  0
 56 57  1  0  0  0  0
 57 64  1  0  0  0  0
 57 65  1  0  0  0  0
 57 58  1  0  0  0  0
 58 66  1  0  0  0  0
 58 67  1  0  0  0  0
  1 27  1  0  0  0  0
M  END
> <FrozenCore-PM6_ENERGY>
-28.602

> <RMSD_CONF_CG-CS>
0.613974

> <RMSD_CONF_GO-CS>
0.000000

> <UID>


> <DESCRIPTOR_DEFINITION_1>
desc1=( echo "1 * ( e( $hartree_to_kcalmol * ( ( $freeEnergyZ - $freeEnergyD ) - ( $freeEnergyX + 2*$G_Ethene - $freeEnergyD - 2*$G_Propene ) - $DDG_reference_HGII ) / $kT ) ) " | bc -l )

> <DESCRIPTOR_DEFINITION_2>
desc1=( echo "1 * ( e( $hartree_to_kcalmol * ( ( $freeEnergyZ - $freeEnergyD ) - ( $freeEnergyX + 2*$G_Ethene - $freeEnergyD - 2*$G_Propene ) - $DDG_reference_HGII ) / $kT ) ) " | bc -l )

> <DESCRIPTOR_DEFINITION_3>
desc1=( echo "1 * ( e( $hartree_to_kcalmol * ( ( $freeEnergyZ - $freeEnergyD ) - ( $freeEnergyX + 2*$G_Ethene - $freeEnergyD - 2*$G_Propene ) - $DDG_reference_HGII ) / $kT ) ) " | bc -l )

> <WEIGHT_DEFINITION_1>
w1=$( echo "1 / ( 1 + e( $hartree_to_kcalmol * ( ( ( $freeEnergyX + 2*$G_Ethene - $freeEnergyD - 2*$G_Propene ) ) - ( $DG_referenceProductionBarrier + $magnitude4 ) ) / $kT ) )" | bc -l )

> <WEIGHT_DEFINITION_2>
w1=$( echo "1 / ( 1 + e( $hartree_to_kcalmol * ( ( ( $freeEnergyX + 2*$G_Ethene - $freeEnergyD - 2*$G_Propene ) ) - ( $DG_referenceProductionBarrier + $magnitude4 ) ) / $kT ) )" | bc -l )

> <WEIGHT_DEFINITION_3>
w1=$( echo "1 / ( 1 + e( $hartree_to_kcalmol * ( ( ( $freeEnergyX + 2*$G_Ethene - $freeEnergyD - 2*$G_Propene ) ) - ( $DG_referenceProductionBarrier + $magnitude4 ) ) / $kT ) )" | bc -l )

> <WEIGHT_DEFINITION_4>
w1=$( echo "1 / ( 1 + e( $hartree_to_kcalmol * ( ( ( $freeEnergyX + 2*$G_Ethene - $freeEnergyD - 2*$G_Propene ) ) - ( $DG_referenceProductionBarrier + $magnitude4 ) ) / $kT ) )" | bc -l )

> <CALCULATION_OF_OVERALL_FITNESS>
fitness=$( echo "( $desc1 + $desc2 + $desc3 ) * ( $w1 * $w2 * $w3 * $w4 )" | bc -l )

> <freeEnergyA>
-2247.47679582

> <freeEnergyF>
-2247.46446746

> <freeEnergyE>
-2247.47679582

> <freeEnergyC>
-1902.21692599

> <freeEnergyL>
-769.613245672

> <freeEnergyX>
-1980.74533364

> <freeEnergyZ>
-1902.19972734

> <freeEnergyD>
-1902.23688227

> <G_Propene>
-117.738020895

> <G_Ethene>
-78.4716324751

> <G_HoveydaProd>
-502.204109499

> <G_SIMes>
-924.27249048

> <G_HG_RuCl2_SIMes>
-2402.13728523

> <DG_referenceProductionBarrier>
0.01468968

> <DG_referencePrecursorStabilityHII>
-0.0052201621

> <DG_referencePrecursorStabilityHI>
0.0117775312

> <DDG_referencePrecursorStability>
.0169976933

> <DG_referenceSynt>
0.0226072217

> <hartree_to_kcalmol>
627.49467516

> <boltzmann_constant>
0.0000000000000000000000138066

> <avogadro_number>
602214000000000000000000

> <jmol_to_kcalmol>
0.00023901

> <temp>
313.15

> <kT>
.6223089948281258706000000000

> <magnitude1>
1.43290809

> <magnitude2>
2.86581618

> <magnitude3>
4.29872427

> <magnitude4>
5.73163236

> <DFT_IDENTIFIER>
1723564505882

> <DFT_MACHINE>
158.39.114.73

> <XTB_IDENTIFIER>
NREC

> <XTB_MACHINE>
NREC

> <DESCRIPTOR_1>
.00007635041002274521

> <DESCRIPTOR_2>
8.050417960677148632

> <DESCRIPTOR_3>
0.0000000001

> <WEIGHT_1>
.99920716817826500906

> <WEIGHT_2>
.99999973960893353860

> <WEIGHT_3>
.99999999995583987514

> <WEIGHT_4>
.99960092340154475443

> <FITNESS>
8.04089931227843836325

$$$$
