
  CDK     08132409443D

 59 62  0  0  0  0  0  0  0  0999 V2000
   -0.7986    3.6223   -2.1752 C   0  0  0  0  0  0  0  0  0  0  0  0
    0.2081    3.5388   -2.6216 H   0  0  0  0  0  0  0  0  0  0  0  0
   -1.2570    4.5942   -2.4647 H   0  0  0  0  0  0  0  0  0  0  0  0
   -1.4391    2.8315   -2.6183 H   0  0  0  0  0  0  0  0  0  0  0  0
   -0.7640    3.5304   -0.6667 C   0  0  0  0  0  0  0  0  0  0  0  0
   -1.7399    3.6441   -0.1591 H   0  0  0  0  0  0  0  0  0  0  0  0
    0.3669    3.8822    0.1160 C   0  0  0  0  0  0  0  0  0  0  0  0
    1.3197    4.0363   -0.4203 H   0  0  0  0  0  0  0  0  0  0  0  0
    0.1716    4.6003    1.4331 C   0  0  0  0  0  0  0  0  0  0  0  0
    1.0747    4.5839    2.0721 H   0  0  0  0  0  0  0  0  0  0  0  0
   -0.0677    5.6647    1.2204 H   0  0  0  0  0  0  0  0  0  0  0  0
   -0.6796    4.1645    1.9925 H   0  0  0  0  0  0  0  0  0  0  0  0
    1.1212    1.9732    1.1989 C   0  0  0  0  0  0  0  0  0  0  0  0
    0.7741    2.1566    2.2390 H   0  0  0  0  0  0  0  0  0  0  0  0
    2.2167    2.0233    1.0077 H   0  0  0  0  0  0  0  0  0  0  0  0
   -0.0429    1.5450   -0.1403 Ru  0  0  0  0  0  0  0  0  0  0  0  0
   -1.9345    1.5335    1.3545 Cl  0  0  0  0  0  0  0  0  0  0  0  0
    1.7304    1.5386   -1.7596 Cl  0  0  0  0  0  0  0  0  0  0  0  0
   -0.2036   -0.4605   -0.2560 C   0  0  0  0  0  0  0  0  0  0  0  0
    0.5588   -1.4245    0.3550 N   0  0  0  0  0  0  0  0  0  0  0  0
    0.0956   -2.6991    0.0207 C   0  0  0  0  0  0  0  0  0  0  0  0
   -0.9716   -2.5262   -0.8180 C   0  0  0  0  0  0  0  0  0  0  0  0
   -1.1462   -1.1504   -0.9663 N   0  0  0  0  0  0  0  0  0  0  0  0
    1.6610   -1.1576    1.2403 C   0  0  0  0  0  0  0  0  0  0  0  0
    3.7954   -0.5504    2.9477 C   0  0  0  0  0  0  0  0  0  0  0  0
    2.9716   -1.1726    0.7155 C   0  0  0  0  0  0  0  0  0  0  0  0
    1.3850   -0.8926    2.5982 C   0  0  0  0  0  0  0  0  0  0  0  0
    2.4766   -0.5828    3.4313 C   0  0  0  0  0  0  0  0  0  0  0  0
    4.0226   -0.8614    1.5937 C   0  0  0  0  0  0  0  0  0  0  0  0
    2.2838   -0.3673    4.4937 H   0  0  0  0  0  0  0  0  0  0  0  0
    5.0518   -0.8597    1.2023 H   0  0  0  0  0  0  0  0  0  0  0  0
   -0.0202   -0.9398    3.1313 C   0  0  0  0  0  0  0  0  0  0  0  0
   -0.5112   -1.9044    2.8874 H   0  0  0  0  0  0  0  0  0  0  0  0
   -0.6541   -0.1433    2.6826 H   0  0  0  0  0  0  0  0  0  0  0  0
   -0.0273   -0.8171    4.2305 H   0  0  0  0  0  0  0  0  0  0  0  0
    3.2248   -1.4862   -0.7331 C   0  0  0  0  0  0  0  0  0  0  0  0
    2.7763   -2.4569   -1.0280 H   0  0  0  0  0  0  0  0  0  0  0  0
    4.3098   -1.5274   -0.9427 H   0  0  0  0  0  0  0  0  0  0  0  0
    2.7707   -0.7003   -1.3749 H   0  0  0  0  0  0  0  0  0  0  0  0
    4.9487   -0.1944    3.8525 C   0  0  0  0  0  0  0  0  0  0  0  0
    5.4029    0.7743    3.5558 H   0  0  0  0  0  0  0  0  0  0  0  0
    5.7539   -0.9552    3.7991 H   0  0  0  0  0  0  0  0  0  0  0  0
    4.6279   -0.1070    4.9080 H   0  0  0  0  0  0  0  0  0  0  0  0
   -1.6164   -3.2580   -1.3061 H   0  0  0  0  0  0  0  0  0  0  0  0
    0.5653   -3.5999    0.4198 H   0  0  0  0  0  0  0  0  0  0  0  0
   -2.1229   -0.4450   -1.8192 C   0  0  0  0  0  0  0  0  0  0  0  0
   -1.4920   -0.0907   -3.1804 C   0  0  0  0  0  0  0  0  0  0  0  0
   -1.5728   -1.4137   -3.9585 C   0  0  0  0  0  0  0  0  0  0  0  0
   -2.9282   -2.0374   -3.5349 C   0  0  0  0  0  0  0  0  0  0  0  0
   -3.3194   -1.3341   -2.2011 C   0  0  0  0  0  0  0  0  0  0  0  0
   -2.4318    0.4403   -1.2252 H   0  0  0  0  0  0  0  0  0  0  0  0
   -0.4673    0.3208   -3.0801 H   0  0  0  0  0  0  0  0  0  0  0  0
   -2.1285    0.6834   -3.6607 H   0  0  0  0  0  0  0  0  0  0  0  0
   -1.4854   -1.2723   -5.0527 H   0  0  0  0  0  0  0  0  0  0  0  0
   -0.7318   -2.0700   -3.6517 H   0  0  0  0  0  0  0  0  0  0  0  0
   -2.8540   -3.1381   -3.4226 H   0  0  0  0  0  0  0  0  0  0  0  0
   -3.7058   -1.8572   -4.3034 H   0  0  0  0  0  0  0  0  0  0  0  0
   -3.5989   -2.0286   -1.3856 H   0  0  0  0  0  0  0  0  0  0  0  0
   -4.1921   -0.6704   -2.3536 H   0  0  0  0  0  0  0  0  0  0  0  0
  1  2  1  0  0  0  0
  1  5  1  0  0  0  0
  3  1  1  0  0  0  0
  4  1  1  0  0  0  0
  5  6  1  0  0  0  0
  5 16  1  0  0  0  0
  5  7  1  0  0  0  0
  7  9  1  0  0  0  0
  7  8  1  0  0  0  0
  9 10  1  0  0  0  0
 11  9  1  0  0  0  0
 12  9  1  0  0  0  0
 13 14  1  0  0  0  0
 13 15  1  0  0  0  0
 13  7  1  0  0  0  0
 16 13  1  0  0  0  0
 16 17  1  0  0  0  0
 16 18  1  0  0  0  0
 19 20  1  0  0  0  0
 19 23  1  0  0  0  0
 20 21  1  0  0  0  0
 20 24  1  0  0  0  0
 21 22  2  0  0  0  0
 21 45  1  0  0  0  0
 22 23  1  0  0  0  0
 22 44  1  0  0  0  0
 23 46  1  0  0  0  0
 24 27  2  0  0  0  0
 24 26  1  0  0  0  0
 25 28  2  0  0  0  0
 25 29  1  0  0  0  0
 25 40  1  0  0  0  0
 26 29  2  0  0  0  0
 26 36  1  0  0  0  0
 27 28  1  0  0  0  0
 27 32  1  0  0  0  0
 28 30  1  0  0  0  0
 29 31  1  0  0  0  0
 32 33  1  0  0  0  0
 32 34  1  0  0  0  0
 32 35  1  0  0  0  0
 36 37  1  0  0  0  0
 36 38  1  0  0  0  0
 36 39  1  0  0  0  0
 40 41  1  0  0  0  0
 40 42  1  0  0  0  0
 40 43  1  0  0  0  0
 46 51  1  0  0  0  0
 46 47  1  0  0  0  0
 46 50  1  0  0  0  0
 47 52  1  0  0  0  0
 47 53  1  0  0  0  0
 47 48  1  0  0  0  0
 48 54  1  0  0  0  0
 48 55  1  0  0  0  0
 48 49  1  0  0  0  0
 49 56  1  0  0  0  0
 49 57  1  0  0  0  0
 49 50  1  0  0  0  0
 50 58  1  0  0  0  0
 50 59  1  0  0  0  0
 16 19  1  0  0  0  0
M  END
>  <DFT-ENERGY>
-1980.74533371

$$$$
