
  CDK     08132416103D

 53 56  0  0  0  0  0  0  0  0999 V2000
    1.2846   -1.1652    0.0640 Ru  0  0  0  0  0  0  0  0  0  0  0  0
    2.3918   -1.3932   -1.5269 C   0  0  0  0  0  0  0  0  0  0  0  0
    1.9593   -2.0121   -2.3340 H   0  0  0  0  0  0  0  0  0  0  0  0
    3.1834   -2.2408   -0.4484 C   0  0  0  0  0  0  0  0  0  0  0  0
    3.2305   -3.2689   -0.8517 H   0  0  0  0  0  0  0  0  0  0  0  0
    2.5264   -2.3716    0.9838 C   0  0  0  0  0  0  0  0  0  0  0  0
    3.1352   -1.9026    1.7781 H   0  0  0  0  0  0  0  0  0  0  0  0
    2.1473   -3.3878    1.1943 H   0  0  0  0  0  0  0  0  0  0  0  0
    4.1659   -1.7541   -0.3116 H   0  0  0  0  0  0  0  0  0  0  0  0
    2.9332   -0.4841   -1.8470 H   0  0  0  0  0  0  0  0  0  0  0  0
    0.0102   -3.1090   -0.5405 Cl  0  0  0  0  0  0  0  0  0  0  0  0
    2.5973    0.6839    0.7928 Cl  0  0  0  0  0  0  0  0  0  0  0  0
   -0.4425   -0.2325    0.4571 C   0  0  0  0  0  0  0  0  0  0  0  0
   -1.0426    0.7254   -0.3097 N   0  0  0  0  0  0  0  0  0  0  0  0
   -2.2455    1.1264    0.2735 C   0  0  0  0  0  0  0  0  0  0  0  0
   -2.3824    0.4044    1.4298 C   0  0  0  0  0  0  0  0  0  0  0  0
   -1.2725   -0.4364    1.5187 N   0  0  0  0  0  0  0  0  0  0  0  0
   -0.4730    1.2166   -1.5401 C   0  0  0  0  0  0  0  0  0  0  0  0
    0.7359    2.1116   -3.8988 C   0  0  0  0  0  0  0  0  0  0  0  0
    0.2632    2.4218   -1.5066 C   0  0  0  0  0  0  0  0  0  0  0  0
   -0.6694    0.4710   -2.7218 C   0  0  0  0  0  0  0  0  0  0  0  0
   -0.0416    0.9416   -3.8902 C   0  0  0  0  0  0  0  0  0  0  0  0
    0.8611    2.8449   -2.7038 C   0  0  0  0  0  0  0  0  0  0  0  0
   -0.1770    0.3747   -4.8242 H   0  0  0  0  0  0  0  0  0  0  0  0
    1.4480    3.7763   -2.6977 H   0  0  0  0  0  0  0  0  0  0  0  0
   -1.5256   -0.7656   -2.7420 C   0  0  0  0  0  0  0  0  0  0  0  0
   -2.5032   -0.5887   -2.2489 H   0  0  0  0  0  0  0  0  0  0  0  0
   -1.0471   -1.6078   -2.1950 H   0  0  0  0  0  0  0  0  0  0  0  0
   -1.7163   -1.0898   -3.7820 H   0  0  0  0  0  0  0  0  0  0  0  0
    0.4165    3.2063   -0.2327 C   0  0  0  0  0  0  0  0  0  0  0  0
   -0.5642    3.4444    0.2271 H   0  0  0  0  0  0  0  0  0  0  0  0
    0.9514    4.1558   -0.4194 H   0  0  0  0  0  0  0  0  0  0  0  0
    1.0013    2.6150    0.5039 H   0  0  0  0  0  0  0  0  0  0  0  0
    1.4274    2.5762   -5.1558 C   0  0  0  0  0  0  0  0  0  0  0  0
    1.0470    2.0482   -6.0510 H   0  0  0  0  0  0  0  0  0  0  0  0
    2.5208    2.3901   -5.0963 H   0  0  0  0  0  0  0  0  0  0  0  0
    1.2951    3.6656   -5.3131 H   0  0  0  0  0  0  0  0  0  0  0  0
   -3.1702    0.4163    2.1837 H   0  0  0  0  0  0  0  0  0  0  0  0
   -2.8858    1.8766   -0.1939 H   0  0  0  0  0  0  0  0  0  0  0  0
   -0.9259   -1.3962    2.5912 C   0  0  0  0  0  0  0  0  0  0  0  0
    0.1462   -0.7910    3.5170 C   0  0  0  0  0  0  0  0  0  0  0  0
   -0.6627    0.1560    4.4192 C   0  0  0  0  0  0  0  0  0  0  0  0
   -2.0138   -0.5718    4.6527 C   0  0  0  0  0  0  0  0  0  0  0  0
   -2.1035   -1.6596    3.5424 C   0  0  0  0  0  0  0  0  0  0  0  0
   -0.5866   -2.3078    2.0594 H   0  0  0  0  0  0  0  0  0  0  0  0
    0.9642   -0.2933    2.9578 H   0  0  0  0  0  0  0  0  0  0  0  0
    0.5915   -1.6197    4.1073 H   0  0  0  0  0  0  0  0  0  0  0  0
   -0.1360    0.4018    5.3610 H   0  0  0  0  0  0  0  0  0  0  0  0
   -0.8287    1.1151    3.8855 H   0  0  0  0  0  0  0  0  0  0  0  0
   -2.8669    0.1357    4.6153 H   0  0  0  0  0  0  0  0  0  0  0  0
   -2.0480   -1.0438    5.6544 H   0  0  0  0  0  0  0  0  0  0  0  0
   -3.0766   -1.6951    3.0152 H   0  0  0  0  0  0  0  0  0  0  0  0
   -1.9527   -2.6674    3.9752 H   0  0  0  0  0  0  0  0  0  0  0  0
  2  4  1  0  0  0  0
  2  1  1  0  0  0  0
  2  3  1  0  0  0  0
  4  6  1  0  0  0  0
  4  5  1  0  0  0  0
  6  1  1  0  0  0  0
  6  8  1  0  0  0  0
  7  6  1  0  0  0  0
  9  4  1  0  0  0  0
 10  2  1  0  0  0  0
  1 11  1  0  0  0  0
  1 12  1  0  0  0  0
 13 14  1  0  0  0  0
 13 17  1  0  0  0  0
 14 15  1  0  0  0  0
 14 18  1  0  0  0  0
 15 16  2  0  0  0  0
 15 39  1  0  0  0  0
 16 17  1  0  0  0  0
 16 38  1  0  0  0  0
 17 40  1  0  0  0  0
 18 21  2  0  0  0  0
 18 20  1  0  0  0  0
 19 22  2  0  0  0  0
 19 23  1  0  0  0  0
 19 34  1  0  0  0  0
 20 23  2  0  0  0  0
 20 30  1  0  0  0  0
 21 22  1  0  0  0  0
 21 26  1  0  0  0  0
 22 24  1  0  0  0  0
 23 25  1  0  0  0  0
 26 27  1  0  0  0  0
 26 28  1  0  0  0  0
 26 29  1  0  0  0  0
 30 31  1  0  0  0  0
 30 32  1  0  0  0  0
 30 33  1  0  0  0  0
 34 35  1  0  0  0  0
 34 36  1  0  0  0  0
 34 37  1  0  0  0  0
 40 45  1  0  0  0  0
 40 41  1  0  0  0  0
 40 44  1  0  0  0  0
 41 46  1  0  0  0  0
 41 47  1  0  0  0  0
 41 42  1  0  0  0  0
 42 48  1  0  0  0  0
 42 49  1  0  0  0  0
 42 43  1  0  0  0  0
 43 50  1  0  0  0  0
 43 51  1  0  0  0  0
 43 44  1  0  0  0  0
 44 52  1  0  0  0  0
 44 53  1  0  0  0  0
  1 13  1  0  0  0  0
M  END
>  <DFT-ENERGY>
-1902.23688233

$$$$
