dPhSIMesCyclohexyl_A1
  CDK     07312414453D

 92 98  0  0  0  0  0  0  0  0999 V2000
    1.7221   -0.4716   -0.7164 Ru  0  0  0  0  0  0  0  0  0  0  0  0
    3.4999   -0.4716   -2.1056 O   0  0  0  0  0  0  0  0  0  0  0  0
    2.9323   -1.4049    0.2877 C   0  0  0  0  0  0  0  0  0  0  0  0
    2.6995   -1.6978    1.3104 H   0  0  0  0  0  0  0  0  0  0  0  0
    3.7354    0.3036   -3.3314 C   0  0  0  0  0  0  0  0  0  0  0  0
    4.1517   -0.3952   -4.0879 H   0  0  0  0  0  0  0  0  0  0  0  0
    2.3140    0.7392   -3.6585 C   0  0  0  0  0  0  0  0  0  0  0  0
    2.2525    1.2403   -4.6279 H   0  0  0  0  0  0  0  0  0  0  0  0
    1.9245    1.4329   -2.8861 H   0  0  0  0  0  0  0  0  0  0  0  0
    1.6352   -0.1378   -3.6755 H   0  0  0  0  0  0  0  0  0  0  0  0
    4.6674    1.4533   -2.9945 C   0  0  0  0  0  0  0  0  0  0  0  0
    4.6626    2.2250   -3.7706 H   0  0  0  0  0  0  0  0  0  0  0  0
    5.7017    1.1287   -2.8402 H   0  0  0  0  0  0  0  0  0  0  0  0
    4.3435    1.9370   -2.0510 H   0  0  0  0  0  0  0  0  0  0  0  0
    4.4921   -1.2700   -1.6006 C   0  0  0  0  0  0  0  0  0  0  0  0
    5.6612   -1.6187   -2.2536 C   0  0  0  0  0  0  0  0  0  0  0  0
    5.8802   -1.2685   -3.2596 H   0  0  0  0  0  0  0  0  0  0  0  0
    6.5624   -2.4498   -1.5961 C   0  0  0  0  0  0  0  0  0  0  0  0
    7.4850   -2.7375   -2.1050 H   0  0  0  0  0  0  0  0  0  0  0  0
    6.3124   -2.9214   -0.3108 C   0  0  0  0  0  0  0  0  0  0  0  0
    7.0371   -3.5663    0.1836 H   0  0  0  0  0  0  0  0  0  0  0  0
    5.1427   -2.5611    0.3308 C   0  0  0  0  0  0  0  0  0  0  0  0
    4.9495   -2.9157    1.3421 H   0  0  0  0  0  0  0  0  0  0  0  0
    4.2072   -1.7457   -0.3086 C   0  0  0  0  0  0  0  0  0  0  0  0
    2.3261    1.7364   -0.1520 Cl  0  0  0  0  0  0  0  0  0  0  0  0
    0.8960   -2.1837   -2.0805 Cl  0  0  0  0  0  0  0  0  0  0  0  0
    0.1144   -0.3767    0.4198 C   0  0  0  0  0  0  0  0  0  0  0  0
   -0.1643   -0.7264    1.7307 N   0  0  0  0  0  0  0  0  0  0  0  0
   -1.5414   -0.3068    2.1897 C   0  0  0  0  0  0  0  0  0  0  0  0
   -2.0504    0.5577    0.9857 C   0  0  0  0  0  0  0  0  0  0  0  0
   -1.0264    0.2756   -0.0759 N   0  0  0  0  0  0  0  0  0  0  0  0
    0.6776   -1.4078    2.6816 C   0  0  0  0  0  0  0  0  0  0  0  0
    2.1030   -2.7217    4.7061 C   0  0  0  0  0  0  0  0  0  0  0  0
    1.3285   -0.6499    3.6871 C   0  0  0  0  0  0  0  0  0  0  0  0
    0.8192   -2.8151    2.6355 C   0  0  0  0  0  0  0  0  0  0  0  0
    1.5227   -3.4566    3.6649 C   0  0  0  0  0  0  0  0  0  0  0  0
    2.0219   -1.3206    4.6997 C   0  0  0  0  0  0  0  0  0  0  0  0
    1.6160   -4.5406    3.6495 H   0  0  0  0  0  0  0  0  0  0  0  0
    2.5099   -0.7494    5.4864 H   0  0  0  0  0  0  0  0  0  0  0  0
   -1.4270    0.3268    3.1089 H   0  0  0  0  0  0  0  0  0  0  0  0
   -3.0539    0.2057    0.6346 H   0  0  0  0  0  0  0  0  0  0  0  0
    0.2784   -3.6071    1.4949 C   0  0  0  0  0  0  0  0  0  0  0  0
    0.7053   -4.6161    1.4335 H   0  0  0  0  0  0  0  0  0  0  0  0
    0.4899   -3.1178    0.5197 H   0  0  0  0  0  0  0  0  0  0  0  0
   -0.8140   -3.7200    1.5654 H   0  0  0  0  0  0  0  0  0  0  0  0
    1.3111    0.8413    3.6435 C   0  0  0  0  0  0  0  0  0  0  0  0
    1.6922    1.2035    2.6658 H   0  0  0  0  0  0  0  0  0  0  0  0
    1.9393    1.3003    4.4168 H   0  0  0  0  0  0  0  0  0  0  0  0
    0.2971    1.2498    3.7584 H   0  0  0  0  0  0  0  0  0  0  0  0
    2.8290   -3.4146    5.8130 C   0  0  0  0  0  0  0  0  0  0  0  0
    2.4263   -3.1291    6.7956 H   0  0  0  0  0  0  0  0  0  0  0  0
    3.8971   -3.1515    5.8122 H   0  0  0  0  0  0  0  0  0  0  0  0
    2.7662   -4.5085    5.7455 H   0  0  0  0  0  0  0  0  0  0  0  0
   -1.2473    0.6616   -1.5031 C   0  0  0  0  0  0  0  0  0  0  0  0
   -2.8779    0.6808   -3.4275 C   0  0  0  0  0  0  0  0  0  0  0  0
   -1.1634    2.5316   -3.1985 C   0  0  0  0  0  0  0  0  0  0  0  0
   -2.5757    2.1649   -3.6759 C   0  0  0  0  0  0  0  0  0  0  0  0
   -0.9534    2.1591   -1.7256 C   0  0  0  0  0  0  0  0  0  0  0  0
   -2.6848    0.3112   -1.9501 C   0  0  0  0  0  0  0  0  0  0  0  0
   -2.2230    0.0504   -4.0615 H   0  0  0  0  0  0  0  0  0  0  0  0
   -0.4093    2.0211   -3.8288 H   0  0  0  0  0  0  0  0  0  0  0  0
   -3.3216    2.7924   -3.1511 H   0  0  0  0  0  0  0  0  0  0  0  0
   -1.6043    2.7826   -1.0826 H   0  0  0  0  0  0  0  0  0  0  0  0
   -3.4268    0.8532   -1.3337 H   0  0  0  0  0  0  0  0  0  0  0  0
   -0.5328    0.0476   -2.1345 H   0  0  0  0  0  0  0  0  0  0  0  0
   -3.9141    0.4480   -3.7368 H   0  0  0  0  0  0  0  0  0  0  0  0
   -0.9887    3.6161   -3.3334 H   0  0  0  0  0  0  0  0  0  0  0  0
   -2.6827    2.3967   -4.7518 H   0  0  0  0  0  0  0  0  0  0  0  0
    0.0884    2.3869   -1.4110 H   0  0  0  0  0  0  0  0  0  0  0  0
   -2.8743   -0.7690   -1.8034 H   0  0  0  0  0  0  0  0  0  0  0  0
   -2.1297    2.0184    1.3819 C   0  0  0  0  0  0  0  0  0  0  0  0
   -2.3373    4.6940    2.1902 C   0  0  0  0  0  0  0  0  0  0  0  0
   -3.3870    2.5755    1.6590 C   0  0  0  0  0  0  0  0  0  0  0  0
   -0.9771    2.8067    1.5097 C   0  0  0  0  0  0  0  0  0  0  0  0
   -1.0835    4.1407    1.9113 C   0  0  0  0  0  0  0  0  0  0  0  0
   -3.4879    3.9098    2.0626 C   0  0  0  0  0  0  0  0  0  0  0  0
   -4.2890    1.9735    1.5627 H   0  0  0  0  0  0  0  0  0  0  0  0
    0.0074    2.3847    1.2747 H   0  0  0  0  0  0  0  0  0  0  0  0
   -0.1842    4.7497    2.0020 H   0  0  0  0  0  0  0  0  0  0  0  0
   -4.4655    4.3386    2.2765 H   0  0  0  0  0  0  0  0  0  0  0  0
   -2.4173    5.7334    2.5032 H   0  0  0  0  0  0  0  0  0  0  0  0
   -2.4436   -1.4856    2.4809 C   0  0  0  0  0  0  0  0  0  0  0  0
   -4.1595   -3.6263    3.0621 C   0  0  0  0  0  0  0  0  0  0  0  0
   -2.8535   -1.7228    3.8008 C   0  0  0  0  0  0  0  0  0  0  0  0
   -2.8892   -2.3324    1.4547 C   0  0  0  0  0  0  0  0  0  0  0  0
   -3.7452   -3.3973    1.7459 C   0  0  0  0  0  0  0  0  0  0  0  0
   -3.7100   -2.7900    4.0880 C   0  0  0  0  0  0  0  0  0  0  0  0
   -2.5028   -1.0817    4.6087 H   0  0  0  0  0  0  0  0  0  0  0  0
   -2.5557   -2.1678    0.4284 H   0  0  0  0  0  0  0  0  0  0  0  0
   -4.0880   -4.0515    0.9452 H   0  0  0  0  0  0  0  0  0  0  0  0
   -4.0249   -2.9700    5.1149 H   0  0  0  0  0  0  0  0  0  0  0  0
   -4.8276   -4.4558    3.2869 H   0  0  0  0  0  0  0  0  0  0  0  0
  1  2  1  0  0  0  0
  1  3  2  0  0  0  0
  3  4  1  0  0  0  0
  2  5  1  0  0  0  0
  5  6  1  0  0  0  0
  5  7  1  0  0  0  0
  7  8  1  0  0  0  0
  7  9  1  0  0  0  0
  7 10  1  0  0  0  0
  5 11  1  0  0  0  0
 11 12  1  0  0  0  0
 11 13  1  0  0  0  0
 11 14  1  0  0  0  0
  2 15  1  0  0  0  0
 15 24  1  0  0  0  0
 15 16  2  0  0  0  0
 16 17  1  0  0  0  0
 16 18  1  0  0  0  0
 18 19  1  0  0  0  0
 18 20  2  0  0  0  0
 20 21  1  0  0  0  0
 20 22  1  0  0  0  0
 22 24  2  0  0  0  0
 22 23  1  0  0  0  0
  3 24  1  0  0  0  0
  1 25  1  0  0  0  0
  1 26  1  0  0  0  0
 27 28  1  0  0  0  0
 27 31  1  0  0  0  0
 28 29  1  0  0  0  0
 30 31  1  0  0  0  0
 32 35  2  0  0  0  0
 35 36  1  0  0  0  0
 33 36  2  0  0  0  0
 33 37  1  0  0  0  0
 34 37  2  0  0  0  0
 32 34  1  0  0  0  0
 36 38  1  0  0  0  0
 37 39  1  0  0  0  0
 28 32  1  0  0  0  0
 29 30  1  0  0  0  0
 29 40  1  0  0  0  0
 30 41  1  0  0  0  0
 42 43  1  0  0  0  0
 42 44  1  0  0  0  0
 42 45  1  0  0  0  0
 35 42  1  0  0  0  0
 46 47  1  0  0  0  0
 46 48  1  0  0  0  0
 46 49  1  0  0  0  0
 34 46  1  0  0  0  0
 50 51  1  0  0  0  0
 50 52  1  0  0  0  0
 50 53  1  0  0  0  0
 33 50  1  0  0  0  0
 54 65  1  0  0  0  0
 54 58  1  0  0  0  0
 54 59  1  0  0  0  0
 55 60  1  0  0  0  0
 55 66  1  0  0  0  0
 55 57  1  0  0  0  0
 55 59  1  0  0  0  0
 56 61  1  0  0  0  0
 56 67  1  0  0  0  0
 56 58  1  0  0  0  0
 56 57  1  0  0  0  0
 57 62  1  0  0  0  0
 57 68  1  0  0  0  0
 58 63  1  0  0  0  0
 58 69  1  0  0  0  0
 59 64  1  0  0  0  0
 59 70  1  0  0  0  0
 31 54  1  0  0  0  0
 71 74  2  0  0  0  0
 74 75  1  0  0  0  0
 72 75  2  0  0  0  0
 72 76  1  0  0  0  0
 73 76  2  0  0  0  0
 71 73  1  0  0  0  0
 75 79  1  0  0  0  0
 76 80  1  0  0  0  0
 72 81  1  0  0  0  0
 73 77  1  0  0  0  0
 74 78  1  0  0  0  0
 30 71  1  0  0  0  0
 82 85  2  0  0  0  0
 85 86  1  0  0  0  0
 83 86  2  0  0  0  0
 83 87  1  0  0  0  0
 84 87  2  0  0  0  0
 82 84  1  0  0  0  0
 86 90  1  0  0  0  0
 87 91  1  0  0  0  0
 83 92  1  0  0  0  0
 84 88  1  0  0  0  0
 85 89  1  0  0  0  0
 29 82  1  0  0  0  0
  1 27  1  0  0  0  0
M  END
> <FrozenCore-PM6_ENERGY>
116.100

> <RMSD_CONF_CG-CS>
0.394439

> <RMSD_CONF_GO-CS>
0.000000

> <UID>


> <DESCRIPTOR_DEFINITION_1>
desc1=( echo "1 * ( e( $hartree_to_kcalmol * ( ( $freeEnergyZ - $freeEnergyD ) - ( $freeEnergyX + 2*$G_Ethene - $freeEnergyD - 2*$G_Propene ) - $DDG_reference_HGII ) / $kT ) ) " | bc -l )

> <DESCRIPTOR_DEFINITION_2>
desc1=( echo "1 * ( e( $hartree_to_kcalmol * ( ( $freeEnergyZ - $freeEnergyD ) - ( $freeEnergyX + 2*$G_Ethene - $freeEnergyD - 2*$G_Propene ) - $DDG_reference_HGII ) / $kT ) ) " | bc -l )

> <DESCRIPTOR_DEFINITION_3>
desc1=( echo "1 * ( e( $hartree_to_kcalmol * ( ( $freeEnergyZ - $freeEnergyD ) - ( $freeEnergyX + 2*$G_Ethene - $freeEnergyD - 2*$G_Propene ) - $DDG_reference_HGII ) / $kT ) ) " | bc -l )

> <WEIGHT_DEFINITION_1>
w1=$( echo "1 / ( 1 + e( $hartree_to_kcalmol * ( ( ( $freeEnergyX + 2*$G_Ethene - $freeEnergyD - 2*$G_Propene ) ) - ( $DG_referenceProductionBarrier + $magnitude4 ) ) / $kT ) )" | bc -l )

> <WEIGHT_DEFINITION_2>
w1=$( echo "1 / ( 1 + e( $hartree_to_kcalmol * ( ( ( $freeEnergyX + 2*$G_Ethene - $freeEnergyD - 2*$G_Propene ) ) - ( $DG_referenceProductionBarrier + $magnitude4 ) ) / $kT ) )" | bc -l )

> <WEIGHT_DEFINITION_3>
w1=$( echo "1 / ( 1 + e( $hartree_to_kcalmol * ( ( ( $freeEnergyX + 2*$G_Ethene - $freeEnergyD - 2*$G_Propene ) ) - ( $DG_referenceProductionBarrier + $magnitude4 ) ) / $kT ) )" | bc -l )

> <WEIGHT_DEFINITION_4>
w1=$( echo "1 / ( 1 + e( $hartree_to_kcalmol * ( ( ( $freeEnergyX + 2*$G_Ethene - $freeEnergyD - 2*$G_Propene ) ) - ( $DG_referenceProductionBarrier + $magnitude4 ) ) / $kT ) )" | bc -l )

> <CALCULATION_OF_OVERALL_FITNESS>
fitness=$( echo "( $desc1 + $desc2 + $desc3 ) * ( $w1 * $w2 * $w3 * $w4 )" | bc -l )

> <freeEnergyA>
-2749.53186422

> <freeEnergyF>
-2749.51395412

> <freeEnergyE>
-2749.53186422

> <freeEnergyC>
-2404.27180819

> <freeEnergyL>
-1271.66022441

> <freeEnergyX>
-2482.80578483

> <freeEnergyZ>
-2404.25746418

> <freeEnergyD>
-2404.29784246

> <G_Propene>
-117.738020895

> <G_Ethene>
-78.4716324751

> <G_HoveydaProd>
-502.204109499

> <G_SIMes>
-924.27249048

> <G_HG_RuCl2_SIMes>
-2402.13728523

> <DG_referenceProductionBarrier>
0.01468968

> <DG_referencePrecursorStabilityHII>
-0.0052201621

> <DG_referencePrecursorStabilityHI>
0.0117775312

> <DDG_referencePrecursorStability>
.0169976933

> <DG_referenceSynt>
0.0226072217

> <hartree_to_kcalmol>
627.49467516

> <boltzmann_constant>
0.0000000000000000000000138066

> <avogadro_number>
602214000000000000000000

> <jmol_to_kcalmol>
0.00023901

> <temp>
313.15

> <kT>
.6223089948281258706000000000

> <magnitude1>
1.43290809

> <magnitude2>
2.86581618

> <magnitude3>
4.29872427

> <magnitude4>
5.73163236

> <DFT_IDENTIFIER>
1722496939015

> <DFT_MACHINE>
158.36.42.38

> <XTB_IDENTIFIER>
NREC

> <XTB_MACHINE>
NREC

> <DESCRIPTOR_1>
.00117885863512276709

> <DESCRIPTOR_2>
9.753658132197694632

> <DESCRIPTOR_3>
0.0000000001

> <WEIGHT_1>
.99867612146482801419

> <WEIGHT_2>
.99999968582940095113

> <WEIGHT_3>
.99999999999998733928

> <WEIGHT_4>
.99999856480799701438

> <FITNESS>
9.74190572947532041342

> <NAME>
H11

$$$$
