
  CDK     08012408123D

 78 83  0  0  0  0  0  0  0  0999 V2000
    2.2492   -1.1856   -0.0910 Ru  0  0  0  0  0  0  0  0  0  0  0  0
    3.7587   -1.0011   -1.3182 C   0  0  0  0  0  0  0  0  0  0  0  0
    3.5730   -1.3645   -2.3451 H   0  0  0  0  0  0  0  0  0  0  0  0
    4.2803   -2.1290   -0.3372 C   0  0  0  0  0  0  0  0  0  0  0  0
    4.4407   -3.0337   -0.9508 H   0  0  0  0  0  0  0  0  0  0  0  0
    3.3142   -2.5461    0.8431 C   0  0  0  0  0  0  0  0  0  0  0  0
    3.6971   -2.2541    1.8374 H   0  0  0  0  0  0  0  0  0  0  0  0
    2.9424   -3.5824    0.7498 H   0  0  0  0  0  0  0  0  0  0  0  0
    5.1955   -1.7303    0.1370 H   0  0  0  0  0  0  0  0  0  0  0  0
    4.3222   -0.0544   -1.2323 H   0  0  0  0  0  0  0  0  0  0  0  0
    1.3119   -2.9298   -1.4346 Cl  0  0  0  0  0  0  0  0  0  0  0  0
    3.1906    0.4338    1.4003 Cl  0  0  0  0  0  0  0  0  0  0  0  0
    0.4622   -0.3507    0.0830 C   0  0  0  0  0  0  0  0  0  0  0  0
   -0.1407    0.3988   -0.8655 N   0  0  0  0  0  0  0  0  0  0  0  0
   -1.4452    0.9317   -0.3694 C   0  0  0  0  0  0  0  0  0  0  0  0
   -1.7091    0.0028    0.8560 C   0  0  0  0  0  0  0  0  0  0  0  0
   -0.3511   -0.4994    1.1486 N   0  0  0  0  0  0  0  0  0  0  0  0
    0.4532    0.7627   -2.1242 C   0  0  0  0  0  0  0  0  0  0  0  0
    1.6215    1.3925   -4.6141 C   0  0  0  0  0  0  0  0  0  0  0  0
    0.0102    0.0903   -3.2930 C   0  0  0  0  0  0  0  0  0  0  0  0
    1.4407    1.7757   -2.1864 C   0  0  0  0  0  0  0  0  0  0  0  0
    2.0181    2.0513   -3.4421 C   0  0  0  0  0  0  0  0  0  0  0  0
    0.6031    0.4266   -4.5186 C   0  0  0  0  0  0  0  0  0  0  0  0
    2.7993    2.8255   -3.4972 H   0  0  0  0  0  0  0  0  0  0  0  0
    0.2671   -0.0992   -5.4261 H   0  0  0  0  0  0  0  0  0  0  0  0
   -2.2161    0.7647   -1.1464 H   0  0  0  0  0  0  0  0  0  0  0  0
   -2.0806    0.6093    1.7036 H   0  0  0  0  0  0  0  0  0  0  0  0
    1.8595    2.5989   -0.9984 C   0  0  0  0  0  0  0  0  0  0  0  0
    2.8931    2.9702   -1.1357 H   0  0  0  0  0  0  0  0  0  0  0  0
    1.8394    2.0364   -0.0486 H   0  0  0  0  0  0  0  0  0  0  0  0
    1.1964    3.4825   -0.8921 H   0  0  0  0  0  0  0  0  0  0  0  0
   -1.0289   -0.9950   -3.2349 C   0  0  0  0  0  0  0  0  0  0  0  0
   -0.6003   -1.8885   -2.7342 H   0  0  0  0  0  0  0  0  0  0  0  0
   -1.3484   -1.2841   -4.2537 H   0  0  0  0  0  0  0  0  0  0  0  0
   -1.9313   -0.7014   -2.6632 H   0  0  0  0  0  0  0  0  0  0  0  0
    2.2645    1.6997   -5.9429 C   0  0  0  0  0  0  0  0  0  0  0  0
    1.5035    1.9328   -6.7156 H   0  0  0  0  0  0  0  0  0  0  0  0
    2.8430    0.8284   -6.3158 H   0  0  0  0  0  0  0  0  0  0  0  0
    2.9577    2.5595   -5.8724 H   0  0  0  0  0  0  0  0  0  0  0  0
    0.0545   -1.2317    2.3592 C   0  0  0  0  0  0  0  0  0  0  0  0
   -0.0497   -1.3447    4.8688 C   0  0  0  0  0  0  0  0  0  0  0  0
    0.4289   -3.4314    3.5140 C   0  0  0  0  0  0  0  0  0  0  0  0
   -0.2016   -2.8701    4.7956 C   0  0  0  0  0  0  0  0  0  0  0  0
   -0.1527   -2.7532    2.2673 C   0  0  0  0  0  0  0  0  0  0  0  0
   -0.6121   -0.6591    3.6146 C   0  0  0  0  0  0  0  0  0  0  0  0
    1.0283   -1.0861    4.9649 H   0  0  0  0  0  0  0  0  0  0  0  0
    1.5296   -3.2641    3.5406 H   0  0  0  0  0  0  0  0  0  0  0  0
   -1.2841   -3.1311    4.8124 H   0  0  0  0  0  0  0  0  0  0  0  0
   -1.2378   -2.9756    2.1900 H   0  0  0  0  0  0  0  0  0  0  0  0
   -1.7110   -0.8295    3.5627 H   0  0  0  0  0  0  0  0  0  0  0  0
    1.1471   -1.0297    2.4390 H   0  0  0  0  0  0  0  0  0  0  0  0
   -0.5521   -0.9449    5.7735 H   0  0  0  0  0  0  0  0  0  0  0  0
    0.2792   -4.5288    3.4532 H   0  0  0  0  0  0  0  0  0  0  0  0
    0.2506   -3.3426    5.6922 H   0  0  0  0  0  0  0  0  0  0  0  0
    0.3240   -3.1376    1.3419 H   0  0  0  0  0  0  0  0  0  0  0  0
   -0.4466    0.4374    3.6664 H   0  0  0  0  0  0  0  0  0  0  0  0
   -2.7062   -1.1011    0.5534 C   0  0  0  0  0  0  0  0  0  0  0  0
   -4.6189   -3.0663   -0.0907 C   0  0  0  0  0  0  0  0  0  0  0  0
   -4.0379   -0.9670    0.9844 C   0  0  0  0  0  0  0  0  0  0  0  0
   -2.3337   -2.2319   -0.1990 C   0  0  0  0  0  0  0  0  0  0  0  0
   -3.2888   -3.2065   -0.5190 C   0  0  0  0  0  0  0  0  0  0  0  0
   -4.9923   -1.9445    0.6645 C   0  0  0  0  0  0  0  0  0  0  0  0
   -4.3291   -0.0870    1.5793 H   0  0  0  0  0  0  0  0  0  0  0  0
   -1.2903   -2.3656   -0.5230 H   0  0  0  0  0  0  0  0  0  0  0  0
   -2.9851   -4.0864   -1.1044 H   0  0  0  0  0  0  0  0  0  0  0  0
   -6.0295   -1.8317    1.0122 H   0  0  0  0  0  0  0  0  0  0  0  0
   -5.3637   -3.8360   -0.3398 H   0  0  0  0  0  0  0  0  0  0  0  0
   -1.3540    2.4100   -0.0599 C   0  0  0  0  0  0  0  0  0  0  0  0
   -1.0790    5.1760    0.4080 C   0  0  0  0  0  0  0  0  0  0  0  0
   -1.8174    3.3425   -1.0044 C   0  0  0  0  0  0  0  0  0  0  0  0
   -0.7485    2.8759    1.1242 C   0  0  0  0  0  0  0  0  0  0  0  0
   -0.6168    4.2503    1.3580 C   0  0  0  0  0  0  0  0  0  0  0  0
   -1.6782    4.7196   -0.7755 C   0  0  0  0  0  0  0  0  0  0  0  0
   -2.2825    2.9816   -1.9344 H   0  0  0  0  0  0  0  0  0  0  0  0
   -0.3430    2.1597    1.8535 H   0  0  0  0  0  0  0  0  0  0  0  0
   -0.1371    4.6019    2.2827 H   0  0  0  0  0  0  0  0  0  0  0  0
   -2.0406    5.4385   -1.5245 H   0  0  0  0  0  0  0  0  0  0  0  0
   -0.9698    6.2548    0.5909 H   0  0  0  0  0  0  0  0  0  0  0  0
  2  4  1  0  0  0  0
  2  1  1  0  0  0  0
  2  3  1  0  0  0  0
  4  6  1  0  0  0  0
  4  5  1  0  0  0  0
  6  1  1  0  0  0  0
  6  8  1  0  0  0  0
  7  6  1  0  0  0  0
  9  4  1  0  0  0  0
 10  2  1  0  0  0  0
  1 11  1  0  0  0  0
  1 12  1  0  0  0  0
 13 14  1  0  0  0  0
 13 17  1  0  0  0  0
 14 15  1  0  0  0  0
 16 17  1  0  0  0  0
 18 21  2  0  0  0  0
 21 22  1  0  0  0  0
 19 22  2  0  0  0  0
 19 23  1  0  0  0  0
 20 23  2  0  0  0  0
 18 20  1  0  0  0  0
 22 24  1  0  0  0  0
 23 25  1  0  0  0  0
 14 18  1  0  0  0  0
 15 16  1  0  0  0  0
 15 26  1  0  0  0  0
 16 27  1  0  0  0  0
 28 29  1  0  0  0  0
 28 30  1  0  0  0  0
 28 31  1  0  0  0  0
 21 28  1  0  0  0  0
 32 33  1  0  0  0  0
 32 34  1  0  0  0  0
 32 35  1  0  0  0  0
 20 32  1  0  0  0  0
 36 37  1  0  0  0  0
 36 38  1  0  0  0  0
 36 39  1  0  0  0  0
 19 36  1  0  0  0  0
 40 51  1  0  0  0  0
 40 44  1  0  0  0  0
 40 45  1  0  0  0  0
 41 46  1  0  0  0  0
 41 52  1  0  0  0  0
 41 43  1  0  0  0  0
 41 45  1  0  0  0  0
 42 47  1  0  0  0  0
 42 53  1  0  0  0  0
 42 44  1  0  0  0  0
 42 43  1  0  0  0  0
 43 48  1  0  0  0  0
 43 54  1  0  0  0  0
 44 49  1  0  0  0  0
 44 55  1  0  0  0  0
 45 50  1  0  0  0  0
 45 56  1  0  0  0  0
 17 40  1  0  0  0  0
 57 60  2  0  0  0  0
 60 61  1  0  0  0  0
 58 61  2  0  0  0  0
 58 62  1  0  0  0  0
 59 62  2  0  0  0  0
 57 59  1  0  0  0  0
 61 65  1  0  0  0  0
 62 66  1  0  0  0  0
 58 67  1  0  0  0  0
 59 63  1  0  0  0  0
 60 64  1  0  0  0  0
 16 57  1  0  0  0  0
 68 71  2  0  0  0  0
 71 72  1  0  0  0  0
 69 72  2  0  0  0  0
 69 73  1  0  0  0  0
 70 73  2  0  0  0  0
 68 70  1  0  0  0  0
 72 76  1  0  0  0  0
 73 77  1  0  0  0  0
 69 78  1  0  0  0  0
 70 74  1  0  0  0  0
 71 75  1  0  0  0  0
 15 68  1  0  0  0  0
  1 13  1  0  0  0  0
M  END
>  <DFT-ENERGY>
-2404.29784257

$$$$
