
  CDK     08012400553D

 84 89  0  0  0  0  0  0  0  0999 V2000
   -0.2723    4.3801   -2.2703 C   0  0  0  0  0  0  0  0  0  0  0  0
    0.7487    4.1601   -2.6298 H   0  0  0  0  0  0  0  0  0  0  0  0
   -0.5691    5.4019   -2.5972 H   0  0  0  0  0  0  0  0  0  0  0  0
   -0.9726    3.6756   -2.7631 H   0  0  0  0  0  0  0  0  0  0  0  0
   -0.3732    4.3022   -0.7641 C   0  0  0  0  0  0  0  0  0  0  0  0
   -1.3845    4.4577   -0.3436 H   0  0  0  0  0  0  0  0  0  0  0  0
    0.6915    4.6616    0.1025 C   0  0  0  0  0  0  0  0  0  0  0  0
    1.6876    4.7736   -0.3614 H   0  0  0  0  0  0  0  0  0  0  0  0
    0.4130    5.4375    1.3702 C   0  0  0  0  0  0  0  0  0  0  0  0
    1.2687    5.4381    2.0714 H   0  0  0  0  0  0  0  0  0  0  0  0
    0.2043    6.4941    1.0956 H   0  0  0  0  0  0  0  0  0  0  0  0
   -0.4814    5.0338    1.8845 H   0  0  0  0  0  0  0  0  0  0  0  0
    1.3919    2.7886    1.2802 C   0  0  0  0  0  0  0  0  0  0  0  0
    1.0597    3.0043    2.3193 H   0  0  0  0  0  0  0  0  0  0  0  0
    2.4843    2.8370    1.0737 H   0  0  0  0  0  0  0  0  0  0  0  0
    0.2023    2.3092   -0.0245 Ru  0  0  0  0  0  0  0  0  0  0  0  0
   -1.7167    2.5256    1.4154 Cl  0  0  0  0  0  0  0  0  0  0  0  0
    1.9765    2.0779   -1.6283 Cl  0  0  0  0  0  0  0  0  0  0  0  0
   -0.0549    0.3394    0.0559 C   0  0  0  0  0  0  0  0  0  0  0  0
    0.4565   -0.5647    0.9258 N   0  0  0  0  0  0  0  0  0  0  0  0
    0.0304   -1.9539    0.5833 C   0  0  0  0  0  0  0  0  0  0  0  0
   -1.1154   -1.6983   -0.4484 C   0  0  0  0  0  0  0  0  0  0  0  0
   -0.8987   -0.2853   -0.7961 N   0  0  0  0  0  0  0  0  0  0  0  0
    1.2837   -0.2757    2.0635 C   0  0  0  0  0  0  0  0  0  0  0  0
    2.8598    0.2999    4.3336 C   0  0  0  0  0  0  0  0  0  0  0  0
    0.6613   -0.1520    3.3326 C   0  0  0  0  0  0  0  0  0  0  0  0
    2.6839   -0.1318    1.9135 C   0  0  0  0  0  0  0  0  0  0  0  0
    3.4408    0.1675    3.0642 C   0  0  0  0  0  0  0  0  0  0  0  0
    1.4680    0.1291    4.4461 C   0  0  0  0  0  0  0  0  0  0  0  0
    4.5290    0.2953    2.9537 H   0  0  0  0  0  0  0  0  0  0  0  0
    0.9865    0.2308    5.4315 H   0  0  0  0  0  0  0  0  0  0  0  0
   -0.3832   -2.4330    1.4923 H   0  0  0  0  0  0  0  0  0  0  0  0
   -0.9661   -2.3457   -1.3357 H   0  0  0  0  0  0  0  0  0  0  0  0
    3.3847   -0.2955    0.5929 C   0  0  0  0  0  0  0  0  0  0  0  0
    4.3582    0.2310    0.6090 H   0  0  0  0  0  0  0  0  0  0  0  0
    2.7970    0.1129   -0.2506 H   0  0  0  0  0  0  0  0  0  0  0  0
    3.5873   -1.3664    0.3872 H   0  0  0  0  0  0  0  0  0  0  0  0
   -0.8298   -0.2647    3.4884 C   0  0  0  0  0  0  0  0  0  0  0  0
   -1.3307    0.5754    2.9610 H   0  0  0  0  0  0  0  0  0  0  0  0
   -1.1152   -0.2279    4.5566 H   0  0  0  0  0  0  0  0  0  0  0  0
   -1.2364   -1.2027    3.0597 H   0  0  0  0  0  0  0  0  0  0  0  0
    3.6946    0.6147    5.5496 C   0  0  0  0  0  0  0  0  0  0  0  0
    4.7615    0.7496    5.2885 H   0  0  0  0  0  0  0  0  0  0  0  0
    3.6285   -0.1978    6.3030 H   0  0  0  0  0  0  0  0  0  0  0  0
    3.3445    1.5421    6.0484 H   0  0  0  0  0  0  0  0  0  0  0  0
   -1.3972    0.3863   -2.0002 C   0  0  0  0  0  0  0  0  0  0  0  0
   -1.0695    0.7314   -4.4895 C   0  0  0  0  0  0  0  0  0  0  0  0
   -3.3587    1.0101   -3.4551 C   0  0  0  0  0  0  0  0  0  0  0  0
   -2.5800    0.5769   -4.7035 C   0  0  0  0  0  0  0  0  0  0  0  0
   -2.9087    0.2391   -2.2063 C   0  0  0  0  0  0  0  0  0  0  0  0
   -0.5940   -0.0268   -3.2440 C   0  0  0  0  0  0  0  0  0  0  0  0
   -0.8196    1.8089   -4.3661 H   0  0  0  0  0  0  0  0  0  0  0  0
   -3.2009    2.0995   -3.2847 H   0  0  0  0  0  0  0  0  0  0  0  0
   -2.8131   -0.4889   -4.9278 H   0  0  0  0  0  0  0  0  0  0  0  0
   -3.1601   -0.8384   -2.3208 H   0  0  0  0  0  0  0  0  0  0  0  0
   -0.7201   -1.1218   -3.4034 H   0  0  0  0  0  0  0  0  0  0  0  0
   -1.1954    1.4730   -1.8230 H   0  0  0  0  0  0  0  0  0  0  0  0
   -0.5067    0.3841   -5.3801 H   0  0  0  0  0  0  0  0  0  0  0  0
   -4.4493    0.8741   -3.6047 H   0  0  0  0  0  0  0  0  0  0  0  0
   -2.9085    1.1633   -5.5865 H   0  0  0  0  0  0  0  0  0  0  0  0
   -3.4436    0.5973   -1.3054 H   0  0  0  0  0  0  0  0  0  0  0  0
    0.4788    0.1756   -3.0485 H   0  0  0  0  0  0  0  0  0  0  0  0
   -2.4884   -1.9685    0.1440 C   0  0  0  0  0  0  0  0  0  0  0  0
   -4.9689   -2.5622    1.3388 C   0  0  0  0  0  0  0  0  0  0  0  0
   -3.0818   -3.2305   -0.0377 C   0  0  0  0  0  0  0  0  0  0  0  0
   -3.1456   -1.0003    0.9261 C   0  0  0  0  0  0  0  0  0  0  0  0
   -4.3806   -1.3002    1.5190 C   0  0  0  0  0  0  0  0  0  0  0  0
   -4.3169   -3.5282    0.5569 C   0  0  0  0  0  0  0  0  0  0  0  0
   -2.5709   -3.9870   -0.6542 H   0  0  0  0  0  0  0  0  0  0  0  0
   -2.7008   -0.0014    1.0579 H   0  0  0  0  0  0  0  0  0  0  0  0
   -4.8874   -0.5348    2.1247 H   0  0  0  0  0  0  0  0  0  0  0  0
   -4.7746   -4.5164    0.4034 H   0  0  0  0  0  0  0  0  0  0  0  0
   -5.9392   -2.7915    1.8027 H   0  0  0  0  0  0  0  0  0  0  0  0
    1.1904   -2.7806    0.0716 C   0  0  0  0  0  0  0  0  0  0  0  0
    3.4320   -4.2479   -0.8039 C   0  0  0  0  0  0  0  0  0  0  0  0
    1.8211   -3.6978    0.9295 C   0  0  0  0  0  0  0  0  0  0  0  0
    1.6931   -2.6034   -1.2324 C   0  0  0  0  0  0  0  0  0  0  0  0
    2.8038   -3.3361   -1.6686 C   0  0  0  0  0  0  0  0  0  0  0  0
    2.9395   -4.4265    0.4973 C   0  0  0  0  0  0  0  0  0  0  0  0
    1.4355   -3.8317    1.9517 H   0  0  0  0  0  0  0  0  0  0  0  0
    1.2334   -1.8640   -1.9037 H   0  0  0  0  0  0  0  0  0  0  0  0
    3.1907   -3.1850   -2.6866 H   0  0  0  0  0  0  0  0  0  0  0  0
    3.4272   -5.1374    1.1800 H   0  0  0  0  0  0  0  0  0  0  0  0
    4.3077   -4.8183   -1.1458 H   0  0  0  0  0  0  0  0  0  0  0  0
  1  2  1  0  0  0  0
  1  5  1  0  0  0  0
  3  1  1  0  0  0  0
  4  1  1  0  0  0  0
  5  6  1  0  0  0  0
  5 16  1  0  0  0  0
  5  7  1  0  0  0  0
  7  9  1  0  0  0  0
  7  8  1  0  0  0  0
  9 10  1  0  0  0  0
 11  9  1  0  0  0  0
 12  9  1  0  0  0  0
 13 14  1  0  0  0  0
 13 15  1  0  0  0  0
 13  7  1  0  0  0  0
 16 13  1  0  0  0  0
 16 17  1  0  0  0  0
 16 18  1  0  0  0  0
 19 20  1  0  0  0  0
 19 23  1  0  0  0  0
 20 21  1  0  0  0  0
 22 23  1  0  0  0  0
 24 27  2  0  0  0  0
 27 28  1  0  0  0  0
 25 28  2  0  0  0  0
 25 29  1  0  0  0  0
 26 29  2  0  0  0  0
 24 26  1  0  0  0  0
 28 30  1  0  0  0  0
 29 31  1  0  0  0  0
 20 24  1  0  0  0  0
 21 22  1  0  0  0  0
 21 32  1  0  0  0  0
 22 33  1  0  0  0  0
 34 35  1  0  0  0  0
 34 36  1  0  0  0  0
 34 37  1  0  0  0  0
 27 34  1  0  0  0  0
 38 39  1  0  0  0  0
 38 40  1  0  0  0  0
 38 41  1  0  0  0  0
 26 38  1  0  0  0  0
 42 43  1  0  0  0  0
 42 44  1  0  0  0  0
 42 45  1  0  0  0  0
 25 42  1  0  0  0  0
 46 57  1  0  0  0  0
 46 50  1  0  0  0  0
 46 51  1  0  0  0  0
 47 52  1  0  0  0  0
 47 58  1  0  0  0  0
 47 49  1  0  0  0  0
 47 51  1  0  0  0  0
 48 53  1  0  0  0  0
 48 59  1  0  0  0  0
 48 50  1  0  0  0  0
 48 49  1  0  0  0  0
 49 54  1  0  0  0  0
 49 60  1  0  0  0  0
 50 55  1  0  0  0  0
 50 61  1  0  0  0  0
 51 56  1  0  0  0  0
 51 62  1  0  0  0  0
 23 46  1  0  0  0  0
 63 66  2  0  0  0  0
 66 67  1  0  0  0  0
 64 67  2  0  0  0  0
 64 68  1  0  0  0  0
 65 68  2  0  0  0  0
 63 65  1  0  0  0  0
 67 71  1  0  0  0  0
 68 72  1  0  0  0  0
 64 73  1  0  0  0  0
 65 69  1  0  0  0  0
 66 70  1  0  0  0  0
 22 63  1  0  0  0  0
 74 77  2  0  0  0  0
 77 78  1  0  0  0  0
 75 78  2  0  0  0  0
 75 79  1  0  0  0  0
 76 79  2  0  0  0  0
 74 76  1  0  0  0  0
 78 82  1  0  0  0  0
 79 83  1  0  0  0  0
 75 84  1  0  0  0  0
 76 80  1  0  0  0  0
 77 81  1  0  0  0  0
 21 74  1  0  0  0  0
 16 19  1  0  0  0  0
M  END
>  <DFT-ENERGY>
-2482.80578485

$$$$
