
  CDK     08012405383D

 78 84  0  0  0  0  0  0  0  0999 V2000
    1.5684    3.8157    1.4255 H   0  0  0  0  0  0  0  0  0  0  0  0
    2.7823    3.8258    1.6263 C   0  0  0  0  0  0  0  0  0  0  0  0
    2.7292    4.9188    1.8221 H   0  0  0  0  0  0  0  0  0  0  0  0
    2.8930    2.7981    2.7042 C   0  0  0  0  0  0  0  0  0  0  0  0
    3.8447    2.2473    2.7852 H   0  0  0  0  0  0  0  0  0  0  0  0
    2.4191    3.0589    3.6673 H   0  0  0  0  0  0  0  0  0  0  0  0
    1.6443    2.0548    1.2263 Ru  0  0  0  0  0  0  0  0  0  0  0  0
    3.1910    3.2640    0.3313 C   0  0  0  0  0  0  0  0  0  0  0  0
    4.1160    2.6769    0.2736 H   0  0  0  0  0  0  0  0  0  0  0  0
    2.9156    3.8225   -0.5795 H   0  0  0  0  0  0  0  0  0  0  0  0
    3.3612    0.3686    0.7660 Cl  0  0  0  0  0  0  0  0  0  0  0  0
   -0.3847    2.9024    2.2432 Cl  0  0  0  0  0  0  0  0  0  0  0  0
    0.7753    0.2025    1.4086 C   0  0  0  0  0  0  0  0  0  0  0  0
    0.3737   -0.6006    0.3807 N   0  0  0  0  0  0  0  0  0  0  0  0
   -0.5475   -1.6603    0.8686 C   0  0  0  0  0  0  0  0  0  0  0  0
   -0.2282   -1.6775    2.3911 C   0  0  0  0  0  0  0  0  0  0  0  0
    0.4104   -0.3584    2.5788 N   0  0  0  0  0  0  0  0  0  0  0  0
    0.6642   -0.4736   -1.0167 C   0  0  0  0  0  0  0  0  0  0  0  0
    1.1156   -0.3094   -3.8114 C   0  0  0  0  0  0  0  0  0  0  0  0
    1.2966   -1.5481   -1.6911 C   0  0  0  0  0  0  0  0  0  0  0  0
    0.3116    0.7014   -1.7206 C   0  0  0  0  0  0  0  0  0  0  0  0
    0.5455    0.7606   -3.1043 C   0  0  0  0  0  0  0  0  0  0  0  0
    1.4938   -1.4453   -3.0791 C   0  0  0  0  0  0  0  0  0  0  0  0
    0.2666    1.6798   -3.6430 H   0  0  0  0  0  0  0  0  0  0  0  0
    1.9900   -2.2805   -3.5982 H   0  0  0  0  0  0  0  0  0  0  0  0
   -0.2837   -2.6335    0.4196 H   0  0  0  0  0  0  0  0  0  0  0  0
   -1.1779   -1.7170    2.9568 H   0  0  0  0  0  0  0  0  0  0  0  0
   -0.2343    1.8951   -1.0072 C   0  0  0  0  0  0  0  0  0  0  0  0
   -0.6410    2.6447   -1.7119 H   0  0  0  0  0  0  0  0  0  0  0  0
    0.5967    2.4607   -0.4720 H   0  0  0  0  0  0  0  0  0  0  0  0
   -1.0025    1.6555   -0.2528 H   0  0  0  0  0  0  0  0  0  0  0  0
    1.8242   -2.7577   -0.9664 C   0  0  0  0  0  0  0  0  0  0  0  0
    2.2529   -2.4757    0.0118 H   0  0  0  0  0  0  0  0  0  0  0  0
    2.6174   -3.2450   -1.5641 H   0  0  0  0  0  0  0  0  0  0  0  0
    1.0442   -3.5275   -0.7799 H   0  0  0  0  0  0  0  0  0  0  0  0
    1.3093   -0.2423   -5.3050 C   0  0  0  0  0  0  0  0  0  0  0  0
    0.3991   -0.5884   -5.8407 H   0  0  0  0  0  0  0  0  0  0  0  0
    2.1481   -0.8855   -5.6358 H   0  0  0  0  0  0  0  0  0  0  0  0
    1.5124    0.7927   -5.6436 H   0  0  0  0  0  0  0  0  0  0  0  0
    0.6702    0.2193    3.9098 C   0  0  0  0  0  0  0  0  0  0  0  0
   -0.2615    0.7336    6.1837 C   0  0  0  0  0  0  0  0  0  0  0  0
    2.2389    0.5206    5.8472 C   0  0  0  0  0  0  0  0  0  0  0  0
    1.0716    0.3233    6.8233 C   0  0  0  0  0  0  0  0  0  0  0  0
    2.0008   -0.2338    4.5320 C   0  0  0  0  0  0  0  0  0  0  0  0
   -0.5058   -0.0141    4.8649 C   0  0  0  0  0  0  0  0  0  0  0  0
   -0.2522    1.8270    5.9776 H   0  0  0  0  0  0  0  0  0  0  0  0
    2.3560    1.6066    5.6320 H   0  0  0  0  0  0  0  0  0  0  0  0
    1.0207   -0.7496    7.1181 H   0  0  0  0  0  0  0  0  0  0  0  0
    1.9765   -1.3250    4.7323 H   0  0  0  0  0  0  0  0  0  0  0  0
   -0.6157   -1.1014    5.0776 H   0  0  0  0  0  0  0  0  0  0  0  0
    0.7321    1.3084    3.7266 H   0  0  0  0  0  0  0  0  0  0  0  0
   -1.1033    0.5506    6.8830 H   0  0  0  0  0  0  0  0  0  0  0  0
    3.1926    0.1878    6.3064 H   0  0  0  0  0  0  0  0  0  0  0  0
    1.2433    0.8987    7.7567 H   0  0  0  0  0  0  0  0  0  0  0  0
    2.8197   -0.0473    3.8082 H   0  0  0  0  0  0  0  0  0  0  0  0
   -1.4463    0.3336    4.3894 H   0  0  0  0  0  0  0  0  0  0  0  0
    0.6536   -2.8407    2.8036 C   0  0  0  0  0  0  0  0  0  0  0  0
    2.2347   -5.0761    3.4680 C   0  0  0  0  0  0  0  0  0  0  0  0
    0.0695   -3.9774    3.3895 C   0  0  0  0  0  0  0  0  0  0  0  0
    2.0404   -2.8263    2.5580 C   0  0  0  0  0  0  0  0  0  0  0  0
    2.8238   -3.9404    2.8886 C   0  0  0  0  0  0  0  0  0  0  0  0
    0.8549   -5.0921    3.7205 C   0  0  0  0  0  0  0  0  0  0  0  0
   -1.0132   -3.9867    3.5909 H   0  0  0  0  0  0  0  0  0  0  0  0
    2.5105   -1.9289    2.1257 H   0  0  0  0  0  0  0  0  0  0  0  0
    3.9061   -3.9176    2.6954 H   0  0  0  0  0  0  0  0  0  0  0  0
    0.3875   -5.9733    4.1838 H   0  0  0  0  0  0  0  0  0  0  0  0
    2.8534   -5.9468    3.7294 H   0  0  0  0  0  0  0  0  0  0  0  0
   -1.9889   -1.3289    0.5392 C   0  0  0  0  0  0  0  0  0  0  0  0
   -4.6777   -0.7443   -0.0694 C   0  0  0  0  0  0  0  0  0  0  0  0
   -2.7533   -2.2170   -0.2353 C   0  0  0  0  0  0  0  0  0  0  0  0
   -2.5806   -0.1367    1.0066 C   0  0  0  0  0  0  0  0  0  0  0  0
   -3.9177    0.1503    0.7029 C   0  0  0  0  0  0  0  0  0  0  0  0
   -4.0930   -1.9288   -0.5393 C   0  0  0  0  0  0  0  0  0  0  0  0
   -2.2899   -3.1437   -0.6080 H   0  0  0  0  0  0  0  0  0  0  0  0
   -1.9922    0.5808    1.6006 H   0  0  0  0  0  0  0  0  0  0  0  0
   -4.3674    1.0845    1.0693 H   0  0  0  0  0  0  0  0  0  0  0  0
   -4.6791   -2.6306   -1.1501 H   0  0  0  0  0  0  0  0  0  0  0  0
   -5.7262   -0.5142   -0.3079 H   0  0  0  0  0  0  0  0  0  0  0  0
  1  2  1  0  0  0  0
  1  7  1  0  0  0  0
  2  3  1  0  0  0  0
  2  4  1  0  0  0  0
  4  5  1  0  0  0  0
  4  6  1  0  0  0  0
  7  8  1  0  0  0  0
  4  7  1  0  0  0  0
  2  8  1  0  0  0  0
  8  9  1  0  0  0  0
  8 10  1  0  0  0  0
  7 11  1  0  0  0  0
  7 12  1  0  0  0  0
 13 14  1  0  0  0  0
 13 17  1  0  0  0  0
 14 15  1  0  0  0  0
 16 17  1  0  0  0  0
 18 21  2  0  0  0  0
 21 22  1  0  0  0  0
 19 22  2  0  0  0  0
 19 23  1  0  0  0  0
 20 23  2  0  0  0  0
 18 20  1  0  0  0  0
 22 24  1  0  0  0  0
 23 25  1  0  0  0  0
 14 18  1  0  0  0  0
 15 16  1  0  0  0  0
 15 26  1  0  0  0  0
 16 27  1  0  0  0  0
 28 29  1  0  0  0  0
 28 30  1  0  0  0  0
 28 31  1  0  0  0  0
 21 28  1  0  0  0  0
 32 33  1  0  0  0  0
 32 34  1  0  0  0  0
 32 35  1  0  0  0  0
 20 32  1  0  0  0  0
 36 37  1  0  0  0  0
 36 38  1  0  0  0  0
 36 39  1  0  0  0  0
 19 36  1  0  0  0  0
 40 51  1  0  0  0  0
 40 44  1  0  0  0  0
 40 45  1  0  0  0  0
 41 46  1  0  0  0  0
 41 52  1  0  0  0  0
 41 43  1  0  0  0  0
 41 45  1  0  0  0  0
 42 47  1  0  0  0  0
 42 53  1  0  0  0  0
 42 44  1  0  0  0  0
 42 43  1  0  0  0  0
 43 48  1  0  0  0  0
 43 54  1  0  0  0  0
 44 49  1  0  0  0  0
 44 55  1  0  0  0  0
 45 50  1  0  0  0  0
 45 56  1  0  0  0  0
 17 40  1  0  0  0  0
 57 60  2  0  0  0  0
 60 61  1  0  0  0  0
 58 61  2  0  0  0  0
 58 62  1  0  0  0  0
 59 62  2  0  0  0  0
 57 59  1  0  0  0  0
 61 65  1  0  0  0  0
 62 66  1  0  0  0  0
 58 67  1  0  0  0  0
 59 63  1  0  0  0  0
 60 64  1  0  0  0  0
 16 57  1  0  0  0  0
 68 71  2  0  0  0  0
 71 72  1  0  0  0  0
 69 72  2  0  0  0  0
 69 73  1  0  0  0  0
 70 73  2  0  0  0  0
 68 70  1  0  0  0  0
 72 76  1  0  0  0  0
 73 77  1  0  0  0  0
 69 78  1  0  0  0  0
 70 74  1  0  0  0  0
 71 75  1  0  0  0  0
 15 68  1  0  0  0  0
  7 13  1  0  0  0  0
M  END
>  <DFT-ENERGY>
-2404.25746497

$$$$
