
  CDK     08152411313D

 80 85  0  0  0  0  0  0  0  0999 V2000
    1.1325   -3.3843    0.9150 H   0  0  0  0  0  0  0  0  0  0  0  0
    2.3609   -3.4131    0.8504 C   0  0  0  0  0  0  0  0  0  0  0  0
    2.3338   -4.5083    0.6752 H   0  0  0  0  0  0  0  0  0  0  0  0
    2.6709   -2.8193    2.1758 C   0  0  0  0  0  0  0  0  0  0  0  0
    3.6057   -2.2545    2.3046 H   0  0  0  0  0  0  0  0  0  0  0  0
    2.3184   -3.3844    3.0553 H   0  0  0  0  0  0  0  0  0  0  0  0
    1.2080   -1.6440    1.2494 Ru  0  0  0  0  0  0  0  0  0  0  0  0
    2.4922   -2.4124   -0.2412 C   0  0  0  0  0  0  0  0  0  0  0  0
    3.4267   -1.8381   -0.3130 H   0  0  0  0  0  0  0  0  0  0  0  0
    2.0133   -2.6695   -1.2024 H   0  0  0  0  0  0  0  0  0  0  0  0
    2.9406    0.0382    1.3223 Cl  0  0  0  0  0  0  0  0  0  0  0  0
   -0.6187   -2.8429    2.2629 Cl  0  0  0  0  0  0  0  0  0  0  0  0
   -0.6668    0.5545    0.6519 N   0  0  0  0  0  0  0  0  0  0  0  0
   -1.6754    1.5829    1.1879 C   0  0  0  0  0  0  0  0  0  0  0  0
   -1.5307    1.3652    2.7033 C   0  0  0  0  0  0  0  0  0  0  0  0
   -2.3204    0.6672    3.0455 H   0  0  0  0  0  0  0  0  0  0  0  0
   -1.6368    2.3126    3.2621 H   0  0  0  0  0  0  0  0  0  0  0  0
   -0.1449    0.6979    2.9348 C   0  0  0  0  0  0  0  0  0  0  0  0
    0.1251    0.0283    1.5882 C   0  0  0  0  0  0  0  0  0  0  0  0
   -0.1505   -0.2703    4.1508 C   0  0  0  0  0  0  0  0  0  0  0  0
    0.7118   -0.9574    4.0403 H   0  0  0  0  0  0  0  0  0  0  0  0
   -1.0643   -0.8888    4.1850 H   0  0  0  0  0  0  0  0  0  0  0  0
    0.0662    0.6333    5.3774 C   0  0  0  0  0  0  0  0  0  0  0  0
    0.5200    0.0908    6.2302 H   0  0  0  0  0  0  0  0  0  0  0  0
   -0.8961    1.0591    5.7419 H   0  0  0  0  0  0  0  0  0  0  0  0
    0.9529    1.7156    4.8165 C   0  0  0  0  0  0  0  0  0  0  0  0
    1.7701    2.6281    5.4974 C   0  0  0  0  0  0  0  0  0  0  0  0
    1.8434    2.6365    6.5945 H   0  0  0  0  0  0  0  0  0  0  0  0
    2.5363    3.5577    4.7839 C   0  0  0  0  0  0  0  0  0  0  0  0
    2.4762    3.5727    3.3620 C   0  0  0  0  0  0  0  0  0  0  0  0
    1.6487    2.6613    2.6833 C   0  0  0  0  0  0  0  0  0  0  0  0
    1.6459    2.6404    1.5899 H   0  0  0  0  0  0  0  0  0  0  0  0
    0.8942    1.7323    3.4119 C   0  0  0  0  0  0  0  0  0  0  0  0
    3.2990    4.4652    5.4868 O   0  0  0  0  0  0  0  0  0  0  0  0
    4.7165    4.3204    5.3152 C   0  0  0  0  0  0  0  0  0  0  0  0
    5.0524    3.3084    5.6338 H   0  0  0  0  0  0  0  0  0  0  0  0
    5.0235    4.4951    4.2637 H   0  0  0  0  0  0  0  0  0  0  0  0
    5.1817    5.0816    5.9694 H   0  0  0  0  0  0  0  0  0  0  0  0
    3.2663    4.5076    2.7401 O   0  0  0  0  0  0  0  0  0  0  0  0
    3.2616    4.5032    1.3168 C   0  0  0  0  0  0  0  0  0  0  0  0
    2.2549    4.7488    0.9111 H   0  0  0  0  0  0  0  0  0  0  0  0
    3.9777    5.2862    1.0091 H   0  0  0  0  0  0  0  0  0  0  0  0
    3.5840    3.5203    0.9066 H   0  0  0  0  0  0  0  0  0  0  0  0
   -1.2985    2.9937    0.7318 C   0  0  0  0  0  0  0  0  0  0  0  0
   -2.0304    3.7122    1.1506 H   0  0  0  0  0  0  0  0  0  0  0  0
   -1.3437    3.0711   -0.3710 H   0  0  0  0  0  0  0  0  0  0  0  0
   -0.2938    3.2907    1.0796 H   0  0  0  0  0  0  0  0  0  0  0  0
   -3.0927    1.2654    0.7155 C   0  0  0  0  0  0  0  0  0  0  0  0
   -3.7820    2.0079    1.1648 H   0  0  0  0  0  0  0  0  0  0  0  0
   -3.4121    0.2615    1.0460 H   0  0  0  0  0  0  0  0  0  0  0  0
   -3.1889    1.3334   -0.3853 H   0  0  0  0  0  0  0  0  0  0  0  0
   -0.6596    0.2605   -0.7813 C   0  0  0  0  0  0  0  0  0  0  0  0
   -1.5719   -0.6974   -1.3147 C   0  0  0  0  0  0  0  0  0  0  0  0
    0.1585    1.0417   -1.6505 C   0  0  0  0  0  0  0  0  0  0  0  0
   -1.7211   -0.7682   -2.7131 C   0  0  0  0  0  0  0  0  0  0  0  0
   -0.9917    0.0515   -3.5744 C   0  0  0  0  0  0  0  0  0  0  0  0
   -2.4287   -1.4984   -3.1298 H   0  0  0  0  0  0  0  0  0  0  0  0
   -0.0417    0.9215   -3.0389 C   0  0  0  0  0  0  0  0  0  0  0  0
    0.5803    1.5255   -3.7143 H   0  0  0  0  0  0  0  0  0  0  0  0
   -1.1409   -0.0096   -4.6622 H   0  0  0  0  0  0  0  0  0  0  0  0
   -2.3144   -1.7444   -0.4938 C   0  0  0  0  0  0  0  0  0  0  0  0
   -2.1315   -1.5564    0.5814 H   0  0  0  0  0  0  0  0  0  0  0  0
   -1.7168   -3.1291   -0.8193 C   0  0  0  0  0  0  0  0  0  0  0  0
   -1.9460   -3.4220   -1.8648 H   0  0  0  0  0  0  0  0  0  0  0  0
   -2.1278   -3.8972   -0.1360 H   0  0  0  0  0  0  0  0  0  0  0  0
   -0.6167   -3.1212   -0.6930 H   0  0  0  0  0  0  0  0  0  0  0  0
   -3.8308   -1.7770   -0.7524 C   0  0  0  0  0  0  0  0  0  0  0  0
   -4.3092   -2.5157   -0.0783 H   0  0  0  0  0  0  0  0  0  0  0  0
   -4.0591   -2.0898   -1.7920 H   0  0  0  0  0  0  0  0  0  0  0  0
   -4.3165   -0.7970   -0.5873 H   0  0  0  0  0  0  0  0  0  0  0  0
    1.3213    1.9199   -1.2031 C   0  0  0  0  0  0  0  0  0  0  0  0
    1.3723    1.8884   -0.0991 H   0  0  0  0  0  0  0  0  0  0  0  0
    1.2059    3.3785   -1.6780 C   0  0  0  0  0  0  0  0  0  0  0  0
    2.1020    3.9509   -1.3650 H   0  0  0  0  0  0  0  0  0  0  0  0
    0.3140    3.8947   -1.2768 H   0  0  0  0  0  0  0  0  0  0  0  0
    1.1575    3.4372   -2.7845 H   0  0  0  0  0  0  0  0  0  0  0  0
    2.6377    1.3156   -1.7317 C   0  0  0  0  0  0  0  0  0  0  0  0
    2.7266    0.2512   -1.4519 H   0  0  0  0  0  0  0  0  0  0  0  0
    3.5063    1.8480   -1.2951 H   0  0  0  0  0  0  0  0  0  0  0  0
    2.6976    1.4047   -2.8363 H   0  0  0  0  0  0  0  0  0  0  0  0
  1  2  1  0  0  0  0
  1  7  1  0  0  0  0
  2  3  1  0  0  0  0
  2  4  1  0  0  0  0
  4  5  1  0  0  0  0
  4  6  1  0  0  0  0
  7  8  1  0  0  0  0
  4  7  1  0  0  0  0
  2  8  1  0  0  0  0
  8  9  1  0  0  0  0
  8 10  1  0  0  0  0
  7 11  1  0  0  0  0
  7 12  1  0  0  0  0
 13 14  1  0  0  0  0
 13 52  1  0  0  0  0
 14 15  1  0  0  0  0
 14 44  1  0  0  0  0
 14 48  1  0  0  0  0
 15 16  1  0  0  0  0
 15 17  1  0  0  0  0
 15 18  1  0  0  0  0
 18 19  1  0  0  0  0
 18 20  1  0  0  0  0
 18 33  1  0  0  0  0
 13 19  1  0  0  0  0
 20 21  1  0  0  0  0
 20 22  1  0  0  0  0
 20 23  1  0  0  0  0
 23 24  1  0  0  0  0
 23 25  1  0  0  0  0
 23 26  1  0  0  0  0
 26 27  2  0  0  0  0
 26 33  1  0  0  0  0
 27 28  1  0  0  0  0
 27 29  1  0  0  0  0
 29 30  2  0  0  0  0
 29 34  1  0  0  0  0
 30 31  1  0  0  0  0
 30 39  1  0  0  0  0
 31 32  1  0  0  0  0
 31 33  2  0  0  0  0
 34 35  1  0  0  0  0
 35 36  1  0  0  0  0
 35 37  1  0  0  0  0
 35 38  1  0  0  0  0
 39 40  1  0  0  0  0
 40 41  1  0  0  0  0
 40 42  1  0  0  0  0
 40 43  1  0  0  0  0
 44 45  1  0  0  0  0
 44 46  1  0  0  0  0
 44 47  1  0  0  0  0
 48 49  1  0  0  0  0
 48 50  1  0  0  0  0
 48 51  1  0  0  0  0
 52 53  2  0  0  0  0
 52 54  1  0  0  0  0
 53 55  1  0  0  0  0
 53 61  1  0  0  0  0
 54 58  2  0  0  0  0
 54 71  1  0  0  0  0
 55 56  2  0  0  0  0
 55 57  1  0  0  0  0
 56 58  1  0  0  0  0
 56 60  1  0  0  0  0
 58 59  1  0  0  0  0
 61 62  1  0  0  0  0
 61 63  1  0  0  0  0
 61 67  1  0  0  0  0
 63 64  1  0  0  0  0
 63 65  1  0  0  0  0
 63 66  1  0  0  0  0
 67 68  1  0  0  0  0
 67 69  1  0  0  0  0
 67 70  1  0  0  0  0
 71 72  1  0  0  0  0
 71 73  1  0  0  0  0
 71 77  1  0  0  0  0
 73 74  1  0  0  0  0
 73 75  1  0  0  0  0
 73 76  1  0  0  0  0
 77 78  1  0  0  0  0
 77 79  1  0  0  0  0
 77 80  1  0  0  0  0
  7 19  1  0  0  0  0
M  END
>  <DFT-ENERGY>
-2425.45749077

$$$$
