
  CDK     07302420513D

 80 83  0  0  0  0  0  0  0  0999 V2000
   -1.2781   -3.9211   -2.5256 C   0  0  0  0  0  0  0  0  0  0  0  0
   -0.2360   -3.9290   -2.8894 H   0  0  0  0  0  0  0  0  0  0  0  0
   -1.7709   -4.8823   -2.7936 H   0  0  0  0  0  0  0  0  0  0  0  0
   -1.8251   -3.1208   -3.0635 H   0  0  0  0  0  0  0  0  0  0  0  0
   -1.3555   -3.7465   -1.0263 C   0  0  0  0  0  0  0  0  0  0  0  0
   -2.3764   -3.7235   -0.6020 H   0  0  0  0  0  0  0  0  0  0  0  0
   -0.3637   -4.2529   -0.1428 C   0  0  0  0  0  0  0  0  0  0  0  0
    0.6000   -4.5276   -0.6071 H   0  0  0  0  0  0  0  0  0  0  0  0
   -0.7505   -4.9449    1.1425 C   0  0  0  0  0  0  0  0  0  0  0  0
    0.1075   -5.0838    1.8267 H   0  0  0  0  0  0  0  0  0  0  0  0
   -1.1465   -5.9529    0.8918 H   0  0  0  0  0  0  0  0  0  0  0  0
   -1.5503   -4.3806    1.6615 H   0  0  0  0  0  0  0  0  0  0  0  0
    0.6811   -2.4773    0.9256 C   0  0  0  0  0  0  0  0  0  0  0  0
    0.3542   -2.6334    1.9753 H   0  0  0  0  0  0  0  0  0  0  0  0
    1.7407   -2.7096    0.6866 H   0  0  0  0  0  0  0  0  0  0  0  0
   -0.4937   -1.8162   -0.3254 Ru  0  0  0  0  0  0  0  0  0  0  0  0
   -2.3390   -1.8751    1.2246 Cl  0  0  0  0  0  0  0  0  0  0  0  0
    1.2786   -2.0407   -1.9450 Cl  0  0  0  0  0  0  0  0  0  0  0  0
   -0.4002    0.1527   -0.4985 C   0  0  0  0  0  0  0  0  0  0  0  0
   -1.7600    2.1809   -1.3967 C   0  0  0  0  0  0  0  0  0  0  0  0
    0.3293    2.5130   -0.0171 C   0  0  0  0  0  0  0  0  0  0  0  0
   -1.1702    2.8237   -0.1453 C   0  0  0  0  0  0  0  0  0  0  0  0
    0.3944    0.9947    0.1917 N   0  0  0  0  0  0  0  0  0  0  0  0
   -1.3406    0.6913   -1.6016 C   0  0  0  0  0  0  0  0  0  0  0  0
   -1.4612    2.7729   -2.2843 H   0  0  0  0  0  0  0  0  0  0  0  0
   -1.6810    2.4510    0.7653 H   0  0  0  0  0  0  0  0  0  0  0  0
   -2.8644    2.2505   -1.3496 H   0  0  0  0  0  0  0  0  0  0  0  0
   -1.3161    3.9230   -0.1757 H   0  0  0  0  0  0  0  0  0  0  0  0
   -0.6818    0.4730   -3.0052 C   0  0  0  0  0  0  0  0  0  0  0  0
   -2.6039   -0.2203   -1.5820 C   0  0  0  0  0  0  0  0  0  0  0  0
    0.9510    3.2718    1.1625 C   0  0  0  0  0  0  0  0  0  0  0  0
    0.8323    4.3551    0.9618 H   0  0  0  0  0  0  0  0  0  0  0  0
    2.0311    3.0602    1.2638 H   0  0  0  0  0  0  0  0  0  0  0  0
    0.4735    3.0477    2.1280 H   0  0  0  0  0  0  0  0  0  0  0  0
    1.0941    2.9532   -1.2780 C   0  0  0  0  0  0  0  0  0  0  0  0
    0.7948    2.4037   -2.1829 H   0  0  0  0  0  0  0  0  0  0  0  0
    2.1820    2.8321   -1.1498 H   0  0  0  0  0  0  0  0  0  0  0  0
    0.8937    4.0295   -1.4540 H   0  0  0  0  0  0  0  0  0  0  0  0
    1.2318    0.5348    1.3000 C   0  0  0  0  0  0  0  0  0  0  0  0
    2.9150   -0.0330    3.4820 C   0  0  0  0  0  0  0  0  0  0  0  0
    2.6202    0.3190    1.0787 C   0  0  0  0  0  0  0  0  0  0  0  0
    0.6694    0.4326    2.6089 C   0  0  0  0  0  0  0  0  0  0  0  0
    1.5461    0.1608    3.6770 C   0  0  0  0  0  0  0  0  0  0  0  0
    3.4356    0.0276    2.1895 C   0  0  0  0  0  0  0  0  0  0  0  0
    1.1332    0.0916    4.6923 H   0  0  0  0  0  0  0  0  0  0  0  0
    4.5094   -0.1421    2.0280 H   0  0  0  0  0  0  0  0  0  0  0  0
    3.5732   -0.2413    4.3381 H   0  0  0  0  0  0  0  0  0  0  0  0
   -0.8187    0.5492    2.9482 C   0  0  0  0  0  0  0  0  0  0  0  0
   -1.3970    0.3952    2.0167 H   0  0  0  0  0  0  0  0  0  0  0  0
    3.3063    0.4150   -0.2799 C   0  0  0  0  0  0  0  0  0  0  0  0
    2.5231    0.5150   -1.0560 H   0  0  0  0  0  0  0  0  0  0  0  0
    4.2523    1.6326   -0.3287 C   0  0  0  0  0  0  0  0  0  0  0  0
    5.1141    1.4837    0.3542 H   0  0  0  0  0  0  0  0  0  0  0  0
    3.7606    2.5768   -0.0230 H   0  0  0  0  0  0  0  0  0  0  0  0
    4.6572    1.7701   -1.3522 H   0  0  0  0  0  0  0  0  0  0  0  0
    4.1162   -0.8525   -0.6055 C   0  0  0  0  0  0  0  0  0  0  0  0
    4.9704   -0.9785    0.0916 H   0  0  0  0  0  0  0  0  0  0  0  0
    4.5313   -0.7780   -1.6308 H   0  0  0  0  0  0  0  0  0  0  0  0
    3.4799   -1.7547   -0.5758 H   0  0  0  0  0  0  0  0  0  0  0  0
   -1.2180    1.8985    3.5810 C   0  0  0  0  0  0  0  0  0  0  0  0
   -0.5504    2.1547    4.4301 H   0  0  0  0  0  0  0  0  0  0  0  0
   -2.2511    1.8277    3.9775 H   0  0  0  0  0  0  0  0  0  0  0  0
   -1.2044    2.7454    2.8703 H   0  0  0  0  0  0  0  0  0  0  0  0
   -1.2451   -0.5626    3.9287 C   0  0  0  0  0  0  0  0  0  0  0  0
   -2.3500   -0.6211    3.9625 H   0  0  0  0  0  0  0  0  0  0  0  0
   -0.8856   -0.3559    4.9585 H   0  0  0  0  0  0  0  0  0  0  0  0
   -0.8772   -1.5550    3.6126 H   0  0  0  0  0  0  0  0  0  0  0  0
   -2.2774   -1.2913   -1.6529 H   0  0  0  0  0  0  0  0  0  0  0  0
   -3.1164   -0.1422   -0.6053 H   0  0  0  0  0  0  0  0  0  0  0  0
   -3.5712    0.0231   -2.7460 C   0  0  0  0  0  0  0  0  0  0  0  0
   -4.0070    1.0431   -2.6594 H   0  0  0  0  0  0  0  0  0  0  0  0
   -4.4245   -0.6804   -2.6571 H   0  0  0  0  0  0  0  0  0  0  0  0
    0.2429    1.0705   -3.1086 H   0  0  0  0  0  0  0  0  0  0  0  0
   -0.3439   -0.5801   -3.0684 H   0  0  0  0  0  0  0  0  0  0  0  0
   -1.6374    0.7719   -4.1659 C   0  0  0  0  0  0  0  0  0  0  0  0
   -1.0943    0.6165   -5.1211 H   0  0  0  0  0  0  0  0  0  0  0  0
   -1.9479    1.8409   -4.1591 H   0  0  0  0  0  0  0  0  0  0  0  0
   -2.8793   -0.1216   -4.1037 C   0  0  0  0  0  0  0  0  0  0  0  0
   -2.5683   -1.1813   -4.2460 H   0  0  0  0  0  0  0  0  0  0  0  0
   -3.5819    0.1160   -4.9290 H   0  0  0  0  0  0  0  0  0  0  0  0
  1  2  1  0  0  0  0
  1  5  1  0  0  0  0
  3  1  1  0  0  0  0
  4  1  1  0  0  0  0
  5  6  1  0  0  0  0
  5 16  1  0  0  0  0
  5  7  1  0  0  0  0
  7  9  1  0  0  0  0
  7  8  1  0  0  0  0
  9 10  1  0  0  0  0
 11  9  1  0  0  0  0
 12  9  1  0  0  0  0
 13 14  1  0  0  0  0
 13 15  1  0  0  0  0
 13  7  1  0  0  0  0
 16 13  1  0  0  0  0
 16 17  1  0  0  0  0
 16 18  1  0  0  0  0
 19 23  1  0  0  0  0
 19 24  1  0  0  0  0
 20 25  1  0  0  0  0
 20 27  1  0  0  0  0
 20 22  1  0  0  0  0
 20 24  1  0  0  0  0
 21 23  1  0  0  0  0
 21 22  1  0  0  0  0
 22 26  1  0  0  0  0
 22 28  1  0  0  0  0
 24 29  1  0  0  0  0
 24 30  1  0  0  0  0
 31 32  1  0  0  0  0
 31 33  1  0  0  0  0
 31 34  1  0  0  0  0
 21 31  1  0  0  0  0
 35 36  1  0  0  0  0
 35 37  1  0  0  0  0
 35 38  1  0  0  0  0
 21 35  1  0  0  0  0
 39 42  2  0  0  0  0
 42 43  1  0  0  0  0
 40 43  2  0  0  0  0
 40 44  1  0  0  0  0
 41 44  2  0  0  0  0
 39 41  1  0  0  0  0
 43 45  1  0  0  0  0
 44 46  1  0  0  0  0
 40 47  1  0  0  0  0
 23 39  1  0  0  0  0
 48 49  1  0  0  0  0
 42 48  1  0  0  0  0
 50 51  1  0  0  0  0
 41 50  1  0  0  0  0
 52 53  1  0  0  0  0
 52 54  1  0  0  0  0
 52 55  1  0  0  0  0
 50 52  1  0  0  0  0
 56 57  1  0  0  0  0
 56 58  1  0  0  0  0
 56 59  1  0  0  0  0
 50 56  1  0  0  0  0
 60 61  1  0  0  0  0
 60 62  1  0  0  0  0
 60 63  1  0  0  0  0
 48 60  1  0  0  0  0
 64 65  1  0  0  0  0
 64 66  1  0  0  0  0
 64 67  1  0  0  0  0
 48 64  1  0  0  0  0
 30 68  1  0  0  0  0
 30 69  1  0  0  0  0
 70 71  1  0  0  0  0
 70 72  1  0  0  0  0
 30 70  1  0  0  0  0
 29 73  1  0  0  0  0
 29 74  1  0  0  0  0
 75 76  1  0  0  0  0
 75 77  1  0  0  0  0
 29 75  1  0  0  0  0
 78 79  1  0  0  0  0
 78 80  1  0  0  0  0
 75 78  1  0  0  0  0
 70 78  1  0  0  0  0
 16 19  1  0  0  0  0
M  END
>  <DFT-ENERGY>
-2201.44837661

$$$$
