CAACCyDIPP_A2
  CDK     07302413173D

 88 92  0  0  0  0  0  0  0  0999 V2000
    0.7582   -0.5703   -1.2596 Ru  0  0  0  0  0  0  0  0  0  0  0  0
    2.5360   -0.5703   -2.6488 O   0  0  0  0  0  0  0  0  0  0  0  0
    1.9684    0.3630   -0.2555 C   0  0  0  0  0  0  0  0  0  0  0  0
    1.7356    0.6559    0.7672 H   0  0  0  0  0  0  0  0  0  0  0  0
    2.7715   -1.3455   -3.8746 C   0  0  0  0  0  0  0  0  0  0  0  0
    3.1997   -0.6496   -4.6276 H   0  0  0  0  0  0  0  0  0  0  0  0
    1.3532   -1.7717   -4.2215 C   0  0  0  0  0  0  0  0  0  0  0  0
    1.3000   -2.2575   -5.1993 H   0  0  0  0  0  0  0  0  0  0  0  0
    0.9544   -2.4766   -3.4647 H   0  0  0  0  0  0  0  0  0  0  0  0
    0.6779   -0.8923   -4.2326 H   0  0  0  0  0  0  0  0  0  0  0  0
    3.6943   -2.5031   -3.5366 C   0  0  0  0  0  0  0  0  0  0  0  0
    3.6947   -3.2684   -4.3190 H   0  0  0  0  0  0  0  0  0  0  0  0
    4.7282   -2.1838   -3.3688 H   0  0  0  0  0  0  0  0  0  0  0  0
    3.3591   -2.9929   -2.6007 H   0  0  0  0  0  0  0  0  0  0  0  0
    3.5282    0.2281   -2.1438 C   0  0  0  0  0  0  0  0  0  0  0  0
    4.6973    0.5768   -2.7968 C   0  0  0  0  0  0  0  0  0  0  0  0
    4.9167    0.2245   -3.8021 H   0  0  0  0  0  0  0  0  0  0  0  0
    5.5985    1.4079   -2.1393 C   0  0  0  0  0  0  0  0  0  0  0  0
    6.5216    1.6945   -2.6477 H   0  0  0  0  0  0  0  0  0  0  0  0
    5.3485    1.8795   -0.8540 C   0  0  0  0  0  0  0  0  0  0  0  0
    6.0741    2.5228   -0.3593 H   0  0  0  0  0  0  0  0  0  0  0  0
    4.1788    1.5192   -0.2124 C   0  0  0  0  0  0  0  0  0  0  0  0
    3.9864    1.8723    0.7996 H   0  0  0  0  0  0  0  0  0  0  0  0
    3.2433    0.7038   -0.8518 C   0  0  0  0  0  0  0  0  0  0  0  0
    1.3625   -2.7795   -0.6949 Cl  0  0  0  0  0  0  0  0  0  0  0  0
   -0.0727    1.1518   -2.6317 Cl  0  0  0  0  0  0  0  0  0  0  0  0
   -0.9623   -0.3611   -0.2958 C   0  0  0  0  0  0  0  0  0  0  0  0
   -3.4338   -0.7304   -0.8659 C   0  0  0  0  0  0  0  0  0  0  0  0
   -2.8365    1.0012    0.8458 C   0  0  0  0  0  0  0  0  0  0  0  0
   -3.7887   -0.1627    0.5015 C   0  0  0  0  0  0  0  0  0  0  0  0
   -1.3785    0.5586    0.6195 N   0  0  0  0  0  0  0  0  0  0  0  0
   -2.0226   -1.3625   -0.8288 C   0  0  0  0  0  0  0  0  0  0  0  0
   -3.4701    0.0555   -1.6458 H   0  0  0  0  0  0  0  0  0  0  0  0
   -3.7371   -0.9550    1.2753 H   0  0  0  0  0  0  0  0  0  0  0  0
   -4.1848   -1.4862   -1.1712 H   0  0  0  0  0  0  0  0  0  0  0  0
   -4.8364    0.1923    0.5180 H   0  0  0  0  0  0  0  0  0  0  0  0
   -1.6902   -1.8839   -2.2541 C   0  0  0  0  0  0  0  0  0  0  0  0
   -1.9976   -2.5812    0.1398 C   0  0  0  0  0  0  0  0  0  0  0  0
   -3.0727    1.4039    2.3102 C   0  0  0  0  0  0  0  0  0  0  0  0
   -4.1198    1.6901    2.4640 H   0  0  0  0  0  0  0  0  0  0  0  0
   -2.4625    2.2648    2.6138 H   0  0  0  0  0  0  0  0  0  0  0  0
   -2.8483    0.5903    3.0102 H   0  0  0  0  0  0  0  0  0  0  0  0
   -3.1354    2.1958   -0.0762 C   0  0  0  0  0  0  0  0  0  0  0  0
   -2.5151    2.1768   -0.9904 H   0  0  0  0  0  0  0  0  0  0  0  0
   -2.9357    3.1589    0.4189 H   0  0  0  0  0  0  0  0  0  0  0  0
   -4.1814    2.2139   -0.3964 H   0  0  0  0  0  0  0  0  0  0  0  0
   -0.4347    1.2232    1.5266 C   0  0  0  0  0  0  0  0  0  0  0  0
    1.1893    2.4534    3.4606 C   0  0  0  0  0  0  0  0  0  0  0  0
    0.0573    2.5292    1.2986 C   0  0  0  0  0  0  0  0  0  0  0  0
   -0.0916    0.5247    2.7180 C   0  0  0  0  0  0  0  0  0  0  0  0
    0.7243    1.1537    3.6656 C   0  0  0  0  0  0  0  0  0  0  0  0
    0.8613    3.1256    2.2879 C   0  0  0  0  0  0  0  0  0  0  0  0
    1.0024    0.6207    4.5752 H   0  0  0  0  0  0  0  0  0  0  0  0
    1.2381    4.1362    2.1240 H   0  0  0  0  0  0  0  0  0  0  0  0
    1.8118    2.9350    4.2133 H   0  0  0  0  0  0  0  0  0  0  0  0
   -0.5362   -0.9058    2.9839 C   0  0  0  0  0  0  0  0  0  0  0  0
   -1.3882   -1.1812    2.3020 H   0  0  0  0  0  0  0  0  0  0  0  0
   -0.1977    3.3353    0.0359 C   0  0  0  0  0  0  0  0  0  0  0  0
   -0.8275    2.7299   -0.6754 H   0  0  0  0  0  0  0  0  0  0  0  0
   -0.9490    4.6327    0.3722 C   0  0  0  0  0  0  0  0  0  0  0  0
   -0.3768    5.2796    1.0446 H   0  0  0  0  0  0  0  0  0  0  0  0
   -1.9146    4.4175    0.8518 H   0  0  0  0  0  0  0  0  0  0  0  0
   -1.1513    5.2092   -0.5381 H   0  0  0  0  0  0  0  0  0  0  0  0
    1.1162    3.6422   -0.6926 C   0  0  0  0  0  0  0  0  0  0  0  0
    1.8401    4.1714   -0.0695 H   0  0  0  0  0  0  0  0  0  0  0  0
    0.9315    4.2495   -1.5870 H   0  0  0  0  0  0  0  0  0  0  0  0
    1.5847    2.7111   -1.0530 H   0  0  0  0  0  0  0  0  0  0  0  0
   -1.0371   -1.0940    4.4220 C   0  0  0  0  0  0  0  0  0  0  0  0
   -0.2285   -0.9947    5.1556 H   0  0  0  0  0  0  0  0  0  0  0  0
   -1.4662   -2.0934    4.5561 H   0  0  0  0  0  0  0  0  0  0  0  0
   -1.8067   -0.3589    4.6803 H   0  0  0  0  0  0  0  0  0  0  0  0
    0.6331   -1.8435    2.6664 C   0  0  0  0  0  0  0  0  0  0  0  0
    0.3419   -2.8965    2.7410 H   0  0  0  0  0  0  0  0  0  0  0  0
    1.4868   -1.6883    3.3329 H   0  0  0  0  0  0  0  0  0  0  0  0
    0.9949   -1.6858    1.6324 H   0  0  0  0  0  0  0  0  0  0  0  0
   -0.9652   -2.9954    0.1768 H   0  0  0  0  0  0  0  0  0  0  0  0
   -2.2235   -2.2503    1.1747 H   0  0  0  0  0  0  0  0  0  0  0  0
   -2.9706   -3.6866   -0.2914 C   0  0  0  0  0  0  0  0  0  0  0  0
   -4.0151   -3.3378   -0.1803 H   0  0  0  0  0  0  0  0  0  0  0  0
   -2.8629   -4.5536    0.3887 H   0  0  0  0  0  0  0  0  0  0  0  0
   -1.6525   -1.0397   -2.9738 H   0  0  0  0  0  0  0  0  0  0  0  0
   -0.6997   -2.4096   -2.2890 H   0  0  0  0  0  0  0  0  0  0  0  0
   -2.7108   -2.9447   -2.7105 C   0  0  0  0  0  0  0  0  0  0  0  0
   -2.4525   -3.2909   -3.7289 H   0  0  0  0  0  0  0  0  0  0  0  0
   -3.7229   -2.5047   -2.7877 H   0  0  0  0  0  0  0  0  0  0  0  0
   -2.7220   -4.1349   -1.7393 C   0  0  0  0  0  0  0  0  0  0  0  0
   -1.7504   -4.6667   -1.7960 H   0  0  0  0  0  0  0  0  0  0  0  0
   -3.4914   -4.8667   -2.0454 H   0  0  0  0  0  0  0  0  0  0  0  0
  2  1  1  0  0  0  0
  3  1  2  0  0  0  0
  4  3  1  0  0  0  0
  5  2  1  0  0  0  0
  6  5  1  0  0  0  0
  7  5  1  0  0  0  0
  8  7  1  0  0  0  0
  9  7  1  0  0  0  0
 10  7  1  0  0  0  0
 11  5  1  0  0  0  0
 12 11  1  0  0  0  0
 13 11  1  0  0  0  0
 14 11  1  0  0  0  0
 15  2  1  0  0  0  0
 15 24  1  0  0  0  0
 16 15  2  0  0  0  0
 17 16  1  0  0  0  0
 18 16  1  0  0  0  0
 19 18  1  0  0  0  0
 20 18  2  0  0  0  0
 21 20  1  0  0  0  0
 22 20  1  0  0  0  0
 22 24  2  0  0  0  0
 23 22  1  0  0  0  0
 24  3  1  0  0  0  0
  1 25  1  0  0  0  0
  1 26  1  0  0  0  0
 27 31  1  0  0  0  0
 27 32  1  0  0  0  0
 28 33  1  0  0  0  0
 28 35  1  0  0  0  0
 28 30  1  0  0  0  0
 28 32  1  0  0  0  0
 29 31  1  0  0  0  0
 29 30  1  0  0  0  0
 30 34  1  0  0  0  0
 30 36  1  0  0  0  0
 32 37  1  0  0  0  0
 32 38  1  0  0  0  0
 39 40  1  0  0  0  0
 39 41  1  0  0  0  0
 39 42  1  0  0  0  0
 29 39  1  0  0  0  0
 43 44  1  0  0  0  0
 43 45  1  0  0  0  0
 43 46  1  0  0  0  0
 29 43  1  0  0  0  0
 47 50  2  0  0  0  0
 50 51  1  0  0  0  0
 48 51  2  0  0  0  0
 48 52  1  0  0  0  0
 49 52  2  0  0  0  0
 47 49  1  0  0  0  0
 51 53  1  0  0  0  0
 52 54  1  0  0  0  0
 48 55  1  0  0  0  0
 31 47  1  0  0  0  0
 56 57  1  0  0  0  0
 50 56  1  0  0  0  0
 58 59  1  0  0  0  0
 49 58  1  0  0  0  0
 60 61  1  0  0  0  0
 60 62  1  0  0  0  0
 60 63  1  0  0  0  0
 58 60  1  0  0  0  0
 64 65  1  0  0  0  0
 64 66  1  0  0  0  0
 64 67  1  0  0  0  0
 58 64  1  0  0  0  0
 68 69  1  0  0  0  0
 68 70  1  0  0  0  0
 68 71  1  0  0  0  0
 56 68  1  0  0  0  0
 72 73  1  0  0  0  0
 72 74  1  0  0  0  0
 72 75  1  0  0  0  0
 56 72  1  0  0  0  0
 38 76  1  0  0  0  0
 38 77  1  0  0  0  0
 78 79  1  0  0  0  0
 78 80  1  0  0  0  0
 38 78  1  0  0  0  0
 37 81  1  0  0  0  0
 37 82  1  0  0  0  0
 83 84  1  0  0  0  0
 83 85  1  0  0  0  0
 37 83  1  0  0  0  0
 86 87  1  0  0  0  0
 86 88  1  0  0  0  0
 83 86  1  0  0  0  0
 78 86  1  0  0  0  0
  1 27  1  0  0  0  0
M  END
> <FrozenCore-PM6_ENERGY>
-168.585

> <RMSD_CONF_CG-CS>
0.852814

> <RMSD_CONF_GO-CS>
0.000000

> <UID>


> <DESCRIPTOR_DEFINITION_1>
desc1=( echo "1 * ( e( $hartree_to_kcalmol * ( ( $freeEnergyZ - $freeEnergyD ) - ( $freeEnergyX + 2*$G_Ethene - $freeEnergyD - 2*$G_Propene ) - $DDG_reference_HGII ) / $kT ) ) " | bc -l )

> <DESCRIPTOR_DEFINITION_2>
desc1=( echo "1 * ( e( $hartree_to_kcalmol * ( ( $freeEnergyZ - $freeEnergyD ) - ( $freeEnergyX + 2*$G_Ethene - $freeEnergyD - 2*$G_Propene ) - $DDG_reference_HGII ) / $kT ) ) " | bc -l )

> <DESCRIPTOR_DEFINITION_3>
desc1=( echo "1 * ( e( $hartree_to_kcalmol * ( ( $freeEnergyZ - $freeEnergyD ) - ( $freeEnergyX + 2*$G_Ethene - $freeEnergyD - 2*$G_Propene ) - $DDG_reference_HGII ) / $kT ) ) " | bc -l )

> <WEIGHT_DEFINITION_1>
w1=$( echo "1 / ( 1 + e( $hartree_to_kcalmol * ( ( ( $freeEnergyX + 2*$G_Ethene - $freeEnergyD - 2*$G_Propene ) ) - ( $DG_referenceProductionBarrier + $magnitude4 ) ) / $kT ) )" | bc -l )

> <WEIGHT_DEFINITION_2>
w1=$( echo "1 / ( 1 + e( $hartree_to_kcalmol * ( ( ( $freeEnergyX + 2*$G_Ethene - $freeEnergyD - 2*$G_Propene ) ) - ( $DG_referenceProductionBarrier + $magnitude4 ) ) / $kT ) )" | bc -l )

> <WEIGHT_DEFINITION_3>
w1=$( echo "1 / ( 1 + e( $hartree_to_kcalmol * ( ( ( $freeEnergyX + 2*$G_Ethene - $freeEnergyD - 2*$G_Propene ) ) - ( $DG_referenceProductionBarrier + $magnitude4 ) ) / $kT ) )" | bc -l )

> <WEIGHT_DEFINITION_4>
w1=$( echo "1 / ( 1 + e( $hartree_to_kcalmol * ( ( ( $freeEnergyX + 2*$G_Ethene - $freeEnergyD - 2*$G_Propene ) ) - ( $DG_referenceProductionBarrier + $magnitude4 ) ) / $kT ) )" | bc -l )

> <CALCULATION_OF_OVERALL_FITNESS>
fitness=$( echo "( $desc1 + $desc2 + $desc3 ) * ( $w1 * $w2 * $w3 * $w4 )" | bc -l )

> <freeEnergyA>
-2468.18472

> <freeEnergyF>
-2468.16125863

> <freeEnergyE>
-2468.18472

> <freeEnergyC>
-2122.92580902

> <freeEnergyL>
-990.316544778

> <freeEnergyX>
-2201.44837649

> <freeEnergyZ>
-2122.89908002

> <freeEnergyD>
-2122.94947298

> <G_Propene>
-117.738020895

> <G_Ethene>
-78.4716324751

> <G_HoveydaProd>
-502.204109499

> <G_SIMes>
-924.27249048

> <G_HG_RuCl2_SIMes>
-2402.13728523

> <DG_referenceProductionBarrier>
0.01468968

> <DG_referencePrecursorStabilityHII>
-0.0052201621

> <DG_referencePrecursorStabilityHI>
0.0117775312

> <DDG_referencePrecursorStability>
.0169976933

> <DG_referenceSynt>
0.0226072217

> <hartree_to_kcalmol>
627.49467516

> <boltzmann_constant>
0.0000000000000000000000138066

> <avogadro_number>
602214000000000000000000

> <jmol_to_kcalmol>
0.00023901

> <temp>
313.15

> <kT>
.6223089948281258706000000000

> <magnitude1>
1.43290809

> <magnitude2>
2.86581618

> <magnitude3>
4.29872427

> <magnitude4>
5.73163236

> <DFT_IDENTIFIER>
1722415687450

> <DFT_MACHINE>
158.36.42.38

> <XTB_IDENTIFIER>
NREC

> <XTB_MACHINE>
NREC

> <DESCRIPTOR_1>
.00315345345710969693

> <DESCRIPTOR_2>
10.365979986112325832

> <DESCRIPTOR_3>
0.0000000001

> <WEIGHT_1>
.07668136223064118568

> <WEIGHT_2>
.99999990097773748916

> <WEIGHT_3>
.99999999999958346816

> <WEIGHT_4>
.99999999467971539416

> <FITNESS>
.79511919434004494775

$$$$
