
  CDK     07312405283D

 74 78  0  0  0  0  0  0  0  0999 V2000
    0.9300    0.9174   -2.7412 H   0  0  0  0  0  0  0  0  0  0  0  0
    1.2087    2.0721   -3.0623 C   0  0  0  0  0  0  0  0  0  0  0  0
    1.1359    1.7834   -4.1331 H   0  0  0  0  0  0  0  0  0  0  0  0
    2.5025    2.2718   -2.3478 C   0  0  0  0  0  0  0  0  0  0  0  0
    2.7488    3.2985   -2.0305 H   0  0  0  0  0  0  0  0  0  0  0  0
    3.3548    1.6637   -2.6956 H   0  0  0  0  0  0  0  0  0  0  0  0
    1.1781    1.3497   -1.0389 Ru  0  0  0  0  0  0  0  0  0  0  0  0
    0.1068    2.7177   -2.3350 C   0  0  0  0  0  0  0  0  0  0  0  0
    0.2447    3.7396   -1.9610 H   0  0  0  0  0  0  0  0  0  0  0  0
   -0.9214    2.4347   -2.6108 H   0  0  0  0  0  0  0  0  0  0  0  0
    1.2303    3.3741    0.2838 Cl  0  0  0  0  0  0  0  0  0  0  0  0
    2.2353   -0.7626   -1.5735 Cl  0  0  0  0  0  0  0  0  0  0  0  0
    1.6530    0.5460    0.7969 C   0  0  0  0  0  0  0  0  0  0  0  0
    3.2486   -0.9380    2.1138 C   0  0  0  0  0  0  0  0  0  0  0  0
    0.7259   -1.1861    2.3669 C   0  0  0  0  0  0  0  0  0  0  0  0
    2.0478   -1.8702    1.9755 C   0  0  0  0  0  0  0  0  0  0  0  0
    0.5928   -0.0405    1.3606 N   0  0  0  0  0  0  0  0  0  0  0  0
    3.0211    0.4635    1.4592 C   0  0  0  0  0  0  0  0  0  0  0  0
    4.1239   -1.4189    1.6350 H   0  0  0  0  0  0  0  0  0  0  0  0
    2.1809   -2.7721    2.6073 H   0  0  0  0  0  0  0  0  0  0  0  0
    3.5125   -0.8158    3.1835 H   0  0  0  0  0  0  0  0  0  0  0  0
    1.9581   -2.2064    0.9218 H   0  0  0  0  0  0  0  0  0  0  0  0
    4.1650    0.8136    0.4726 C   0  0  0  0  0  0  0  0  0  0  0  0
    3.0166    1.6169    2.5330 C   0  0  0  0  0  0  0  0  0  0  0  0
    0.7516   -0.7473    3.8423 C   0  0  0  0  0  0  0  0  0  0  0  0
    1.0027   -1.6374    4.4535 H   0  0  0  0  0  0  0  0  0  0  0  0
   -0.2326   -0.3819    4.1806 H   0  0  0  0  0  0  0  0  0  0  0  0
    1.5075    0.0243    4.0606 H   0  0  0  0  0  0  0  0  0  0  0  0
   -0.4409   -2.1564    2.1941 C   0  0  0  0  0  0  0  0  0  0  0  0
   -0.3947   -2.6846    1.2279 H   0  0  0  0  0  0  0  0  0  0  0  0
   -1.4160   -1.6378    2.2750 H   0  0  0  0  0  0  0  0  0  0  0  0
   -0.3921   -2.9144    2.9995 H   0  0  0  0  0  0  0  0  0  0  0  0
   -0.6765    0.4473    0.7693 C   0  0  0  0  0  0  0  0  0  0  0  0
   -2.8276    1.7765   -0.4715 C   0  0  0  0  0  0  0  0  0  0  0  0
   -1.1802   -0.0578   -0.4819 C   0  0  0  0  0  0  0  0  0  0  0  0
   -1.3131    1.5451    1.4292 C   0  0  0  0  0  0  0  0  0  0  0  0
   -2.3766    2.1922    0.7868 C   0  0  0  0  0  0  0  0  0  0  0  0
   -2.2535    0.6613   -1.0706 C   0  0  0  0  0  0  0  0  0  0  0  0
   -2.8556    3.0468    1.2830 H   0  0  0  0  0  0  0  0  0  0  0  0
   -2.6586    0.2952   -2.0240 H   0  0  0  0  0  0  0  0  0  0  0  0
   -3.6509    2.3094   -0.9690 H   0  0  0  0  0  0  0  0  0  0  0  0
   -0.9588    1.9830    2.8444 C   0  0  0  0  0  0  0  0  0  0  0  0
    0.0365    1.5686    3.0862 H   0  0  0  0  0  0  0  0  0  0  0  0
   -0.9299   -1.4530   -1.0635 C   0  0  0  0  0  0  0  0  0  0  0  0
    0.0149   -1.8442   -0.6404 H   0  0  0  0  0  0  0  0  0  0  0  0
   -2.1135   -2.3721   -0.6760 C   0  0  0  0  0  0  0  0  0  0  0  0
   -3.0235   -2.0786   -1.2382 H   0  0  0  0  0  0  0  0  0  0  0  0
   -2.3665   -2.3247    0.3982 H   0  0  0  0  0  0  0  0  0  0  0  0
   -1.8846   -3.4265   -0.9345 H   0  0  0  0  0  0  0  0  0  0  0  0
   -0.7997   -1.4938   -2.5945 C   0  0  0  0  0  0  0  0  0  0  0  0
   -1.7437   -1.1979   -3.0961 H   0  0  0  0  0  0  0  0  0  0  0  0
   -0.5727   -2.5292   -2.9176 H   0  0  0  0  0  0  0  0  0  0  0  0
    0.0191   -0.8486   -2.9566 H   0  0  0  0  0  0  0  0  0  0  0  0
   -1.9992    1.3882    3.8168 C   0  0  0  0  0  0  0  0  0  0  0  0
   -2.9926    1.8512    3.6439 H   0  0  0  0  0  0  0  0  0  0  0  0
   -1.7129    1.5833    4.8709 H   0  0  0  0  0  0  0  0  0  0  0  0
   -2.1254    0.2947    3.6855 H   0  0  0  0  0  0  0  0  0  0  0  0
   -0.8783    3.5038    3.0408 C   0  0  0  0  0  0  0  0  0  0  0  0
   -0.5346    3.7269    4.0715 H   0  0  0  0  0  0  0  0  0  0  0  0
   -1.8689    3.9886    2.9193 H   0  0  0  0  0  0  0  0  0  0  0  0
   -0.1732    3.9561    2.3202 H   0  0  0  0  0  0  0  0  0  0  0  0
    2.7584    2.5542    2.0032 H   0  0  0  0  0  0  0  0  0  0  0  0
    2.2108    1.4577    3.2737 H   0  0  0  0  0  0  0  0  0  0  0  0
    4.3666    1.7776    3.2404 C   0  0  0  0  0  0  0  0  0  0  0  0
    4.6181    0.8623    3.8225 H   0  0  0  0  0  0  0  0  0  0  0  0
    4.2780    2.5992    3.9819 H   0  0  0  0  0  0  0  0  0  0  0  0
    4.2177    0.0356   -0.3100 H   0  0  0  0  0  0  0  0  0  0  0  0
    3.8858    1.7565   -0.0417 H   0  0  0  0  0  0  0  0  0  0  0  0
    5.5234    0.9808    1.1625 C   0  0  0  0  0  0  0  0  0  0  0  0
    6.2894    1.2164    0.3950 H   0  0  0  0  0  0  0  0  0  0  0  0
    5.8417    0.0184    1.6243 H   0  0  0  0  0  0  0  0  0  0  0  0
    5.4860    2.0695    2.2380 C   0  0  0  0  0  0  0  0  0  0  0  0
    5.2919    3.0532    1.7554 H   0  0  0  0  0  0  0  0  0  0  0  0
    6.4647    2.1513    2.7553 H   0  0  0  0  0  0  0  0  0  0  0  0
  1  2  1  0  0  0  0
  1  7  1  0  0  0  0
  2  3  1  0  0  0  0
  2  4  1  0  0  0  0
  4  5  1  0  0  0  0
  4  6  1  0  0  0  0
  7  8  1  0  0  0  0
  4  7  1  0  0  0  0
  2  8  1  0  0  0  0
  8  9  1  0  0  0  0
  8 10  1  0  0  0  0
  7 11  1  0  0  0  0
  7 12  1  0  0  0  0
 13 17  1  0  0  0  0
 13 18  1  0  0  0  0
 14 19  1  0  0  0  0
 14 21  1  0  0  0  0
 14 16  1  0  0  0  0
 14 18  1  0  0  0  0
 15 17  1  0  0  0  0
 15 16  1  0  0  0  0
 16 20  1  0  0  0  0
 16 22  1  0  0  0  0
 18 23  1  0  0  0  0
 18 24  1  0  0  0  0
 25 26  1  0  0  0  0
 25 27  1  0  0  0  0
 25 28  1  0  0  0  0
 15 25  1  0  0  0  0
 29 30  1  0  0  0  0
 29 31  1  0  0  0  0
 29 32  1  0  0  0  0
 15 29  1  0  0  0  0
 33 36  2  0  0  0  0
 36 37  1  0  0  0  0
 34 37  2  0  0  0  0
 34 38  1  0  0  0  0
 35 38  2  0  0  0  0
 33 35  1  0  0  0  0
 37 39  1  0  0  0  0
 38 40  1  0  0  0  0
 34 41  1  0  0  0  0
 17 33  1  0  0  0  0
 42 43  1  0  0  0  0
 36 42  1  0  0  0  0
 44 45  1  0  0  0  0
 35 44  1  0  0  0  0
 46 47  1  0  0  0  0
 46 48  1  0  0  0  0
 46 49  1  0  0  0  0
 44 46  1  0  0  0  0
 50 51  1  0  0  0  0
 50 52  1  0  0  0  0
 50 53  1  0  0  0  0
 44 50  1  0  0  0  0
 54 55  1  0  0  0  0
 54 56  1  0  0  0  0
 54 57  1  0  0  0  0
 42 54  1  0  0  0  0
 58 59  1  0  0  0  0
 58 60  1  0  0  0  0
 58 61  1  0  0  0  0
 42 58  1  0  0  0  0
 24 62  1  0  0  0  0
 24 63  1  0  0  0  0
 64 65  1  0  0  0  0
 64 66  1  0  0  0  0
 24 64  1  0  0  0  0
 23 67  1  0  0  0  0
 23 68  1  0  0  0  0
 69 70  1  0  0  0  0
 69 71  1  0  0  0  0
 23 69  1  0  0  0  0
 72 73  1  0  0  0  0
 72 74  1  0  0  0  0
 69 72  1  0  0  0  0
 64 72  1  0  0  0  0
  7 13  1  0  0  0  0
M  END
>  <DFT-ENERGY>
-2122.89908009

$$$$
