
  CDK     08132413433D

 65 68  0  0  0  0  0  0  0  0999 V2000
    1.7330    0.2178    2.7630 C   0  0  0  0  0  0  0  0  0  0  0  0
    2.1273   -0.8135    2.7491 H   0  0  0  0  0  0  0  0  0  0  0  0
    2.1885    0.7831    3.6066 H   0  0  0  0  0  0  0  0  0  0  0  0
    2.0640    0.7280    1.8333 H   0  0  0  0  0  0  0  0  0  0  0  0
    0.2302    0.2575    2.9104 C   0  0  0  0  0  0  0  0  0  0  0  0
   -0.2096    1.2659    3.0224 H   0  0  0  0  0  0  0  0  0  0  0  0
   -0.5614   -0.8063    3.4204 C   0  0  0  0  0  0  0  0  0  0  0  0
   -0.0616   -1.7804    3.5621 H   0  0  0  0  0  0  0  0  0  0  0  0
   -1.7676   -0.4991    4.2797 C   0  0  0  0  0  0  0  0  0  0  0  0
   -2.4505   -1.3629    4.3864 H   0  0  0  0  0  0  0  0  0  0  0  0
   -1.4128   -0.2264    5.2970 H   0  0  0  0  0  0  0  0  0  0  0  0
   -2.3307    0.3630    3.8712 H   0  0  0  0  0  0  0  0  0  0  0  0
   -1.9043   -1.5882    1.6966 C   0  0  0  0  0  0  0  0  0  0  0  0
   -2.9033   -1.1606    1.9274 H   0  0  0  0  0  0  0  0  0  0  0  0
   -1.7650   -2.6830    1.8343 H   0  0  0  0  0  0  0  0  0  0  0  0
   -0.5460   -0.5474    1.0563 Ru  0  0  0  0  0  0  0  0  0  0  0  0
   -2.0106    1.3638    1.1535 Cl  0  0  0  0  0  0  0  0  0  0  0  0
    0.8917   -2.4778    1.0596 Cl  0  0  0  0  0  0  0  0  0  0  0  0
    2.7339    0.1091   -1.0688 C   0  0  0  0  0  0  0  0  0  0  0  0
    1.5272    0.8345   -1.1880 C   0  0  0  0  0  0  0  0  0  0  0  0
    1.4080    2.1932   -0.8223 C   0  0  0  0  0  0  0  0  0  0  0  0
    2.5292    2.7971   -0.2247 C   0  0  0  0  0  0  0  0  0  0  0  0
    3.7321    2.0976   -0.0224 C   0  0  0  0  0  0  0  0  0  0  0  0
    3.8215    0.7663   -0.4706 C   0  0  0  0  0  0  0  0  0  0  0  0
    0.3757    0.1635   -1.7364 N   0  0  0  0  0  0  0  0  0  0  0  0
   -0.5586   -0.4764   -0.9593 C   0  0  0  0  0  0  0  0  0  0  0  0
   -1.4646   -1.0093   -1.8454 N   0  0  0  0  0  0  0  0  0  0  0  0
   -1.0921   -0.7053   -3.1625 C   0  0  0  0  0  0  0  0  0  0  0  0
    0.0599    0.0362   -3.0939 C   0  0  0  0  0  0  0  0  0  0  0  0
   -2.6299   -1.7705   -1.4753 C   0  0  0  0  0  0  0  0  0  0  0  0
   -2.4896   -3.1608   -1.2809 C   0  0  0  0  0  0  0  0  0  0  0  0
   -3.6311   -3.8707   -0.8708 C   0  0  0  0  0  0  0  0  0  0  0  0
   -4.8711   -3.2357   -0.6745 C   0  0  0  0  0  0  0  0  0  0  0  0
   -4.9684   -1.8560   -0.9288 C   0  0  0  0  0  0  0  0  0  0  0  0
   -3.8600   -1.0951   -1.3391 C   0  0  0  0  0  0  0  0  0  0  0  0
   -1.1717   -3.8481   -1.5026 C   0  0  0  0  0  0  0  0  0  0  0  0
   -6.0664   -4.0182   -0.1914 C   0  0  0  0  0  0  0  0  0  0  0  0
   -3.9742    0.3773   -1.6176 C   0  0  0  0  0  0  0  0  0  0  0  0
    0.1477    2.9675   -1.0870 C   0  0  0  0  0  0  0  0  0  0  0  0
    4.9006    2.7539    0.6679 C   0  0  0  0  0  0  0  0  0  0  0  0
    2.8464   -1.3034   -1.5685 C   0  0  0  0  0  0  0  0  0  0  0  0
   -1.9859   -1.2256   -4.5210 Cl  0  0  0  0  0  0  0  0  0  0  0  0
    1.0086    0.7294   -4.3328 Cl  0  0  0  0  0  0  0  0  0  0  0  0
   -3.5457   -4.9565   -0.7096 H   0  0  0  0  0  0  0  0  0  0  0  0
   -5.9387   -1.3498   -0.8099 H   0  0  0  0  0  0  0  0  0  0  0  0
   -0.7447   -3.5922   -2.4939 H   0  0  0  0  0  0  0  0  0  0  0  0
   -1.2884   -4.9465   -1.4505 H   0  0  0  0  0  0  0  0  0  0  0  0
   -0.4275   -3.5380   -0.7359 H   0  0  0  0  0  0  0  0  0  0  0  0
   -6.0698   -4.0875    0.9177 H   0  0  0  0  0  0  0  0  0  0  0  0
   -6.0593   -5.0551   -0.5809 H   0  0  0  0  0  0  0  0  0  0  0  0
   -7.0177   -3.5387   -0.4928 H   0  0  0  0  0  0  0  0  0  0  0  0
   -5.0236    0.7135   -1.5268 H   0  0  0  0  0  0  0  0  0  0  0  0
   -3.6201    0.6247   -2.6395 H   0  0  0  0  0  0  0  0  0  0  0  0
   -3.3568    0.9543   -0.8958 H   0  0  0  0  0  0  0  0  0  0  0  0
    2.4584    3.8531    0.0778 H   0  0  0  0  0  0  0  0  0  0  0  0
    4.7689    0.2177   -0.3560 H   0  0  0  0  0  0  0  0  0  0  0  0
   -0.1740    2.8584   -2.1430 H   0  0  0  0  0  0  0  0  0  0  0  0
    0.3011    4.0432   -0.8819 H   0  0  0  0  0  0  0  0  0  0  0  0
   -0.6861    2.6046   -0.4471 H   0  0  0  0  0  0  0  0  0  0  0  0
    4.9085    2.4998    1.7497 H   0  0  0  0  0  0  0  0  0  0  0  0
    4.8556    3.8571    0.5890 H   0  0  0  0  0  0  0  0  0  0  0  0
    5.8668    2.4121    0.2477 H   0  0  0  0  0  0  0  0  0  0  0  0
    2.5251   -1.3846   -2.6269 H   0  0  0  0  0  0  0  0  0  0  0  0
    2.2035   -1.9766   -0.9620 H   0  0  0  0  0  0  0  0  0  0  0  0
    3.8900   -1.6615   -1.4957 H   0  0  0  0  0  0  0  0  0  0  0  0
  1  2  1  0  0  0  0
  1  5  1  0  0  0  0
  1  3  1  0  0  0  0
  1  4  1  0  0  0  0
  5  6  1  0  0  0  0
  5 16  1  0  0  0  0
  5  7  1  0  0  0  0
  7  9  1  0  0  0  0
  7  8  1  0  0  0  0
  9 10  1  0  0  0  0
  9 11  1  0  0  0  0
  9 12  1  0  0  0  0
 13 14  1  0  0  0  0
 13 15  1  0  0  0  0
  7 13  1  0  0  0  0
 13 16  1  0  0  0  0
 16 17  1  0  0  0  0
 16 18  1  0  0  0  0
 19 20  2  0  0  0  0
 19 24  1  0  0  0  0
 19 41  1  0  0  0  0
 20 21  1  0  0  0  0
 20 25  1  0  0  0  0
 21 22  2  0  0  0  0
 21 39  1  0  0  0  0
 22 23  1  0  0  0  0
 22 55  1  0  0  0  0
 23 24  2  0  0  0  0
 23 40  1  0  0  0  0
 24 56  1  0  0  0  0
 25 26  1  0  0  0  0
 25 29  1  0  0  0  0
 26 27  1  0  0  0  0
 27 28  1  0  0  0  0
 27 30  1  0  0  0  0
 28 29  2  0  0  0  0
 28 42  1  0  0  0  0
 29 43  1  0  0  0  0
 30 31  1  0  0  0  0
 30 35  2  0  0  0  0
 31 32  2  0  0  0  0
 31 36  1  0  0  0  0
 32 33  1  0  0  0  0
 32 44  1  0  0  0  0
 33 34  2  0  0  0  0
 33 37  1  0  0  0  0
 34 35  1  0  0  0  0
 34 45  1  0  0  0  0
 35 38  1  0  0  0  0
 36 46  1  0  0  0  0
 36 47  1  0  0  0  0
 36 48  1  0  0  0  0
 37 49  1  0  0  0  0
 37 50  1  0  0  0  0
 37 51  1  0  0  0  0
 38 52  1  0  0  0  0
 38 53  1  0  0  0  0
 38 54  1  0  0  0  0
 39 57  1  0  0  0  0
 39 58  1  0  0  0  0
 39 59  1  0  0  0  0
 40 60  1  0  0  0  0
 40 61  1  0  0  0  0
 40 62  1  0  0  0  0
 41 63  1  0  0  0  0
 41 64  1  0  0  0  0
 41 65  1  0  0  0  0
 16 26  1  0  0  0  0
M  END
>  <DFT-ENERGY>
-3053.06924357

$$$$
