
  CDK     08132418073D

 59 63  0  0  0  0  0  0  0  0999 V2000
    1.5907   -0.9876   -2.3174 H   0  0  0  0  0  0  0  0  0  0  0  0
    2.7993   -1.1726   -2.1793 C   0  0  0  0  0  0  0  0  0  0  0  0
    2.8530   -1.3018   -3.2836 H   0  0  0  0  0  0  0  0  0  0  0  0
    2.7912   -2.3177   -1.2217 C   0  0  0  0  0  0  0  0  0  0  0  0
    3.6598   -2.4304   -0.5518 H   0  0  0  0  0  0  0  0  0  0  0  0
    2.3504   -3.2621   -1.5849 H   0  0  0  0  0  0  0  0  0  0  0  0
    1.4433   -0.9106   -0.5514 Ru  0  0  0  0  0  0  0  0  0  0  0  0
    3.1023    0.0968   -1.5110 C   0  0  0  0  0  0  0  0  0  0  0  0
    3.9504    0.1565   -0.8186 H   0  0  0  0  0  0  0  0  0  0  0  0
    2.8473    1.0262   -2.0485 H   0  0  0  0  0  0  0  0  0  0  0  0
    2.9439   -0.4756    1.3138 Cl  0  0  0  0  0  0  0  0  0  0  0  0
   -0.4180   -1.6696   -1.8590 Cl  0  0  0  0  0  0  0  0  0  0  0  0
    1.3253   -4.3890    1.2776 C   0  0  0  0  0  0  0  0  0  0  0  0
    0.0941   -3.7651    0.9872 C   0  0  0  0  0  0  0  0  0  0  0  0
   -0.8925   -4.3622    0.1752 C   0  0  0  0  0  0  0  0  0  0  0  0
   -0.5719   -5.5883   -0.4315 C   0  0  0  0  0  0  0  0  0  0  0  0
    0.6686   -6.2176   -0.2305 C   0  0  0  0  0  0  0  0  0  0  0  0
    1.5920   -5.6132    0.6411 C   0  0  0  0  0  0  0  0  0  0  0  0
   -0.1882   -2.4790    1.5789 N   0  0  0  0  0  0  0  0  0  0  0  0
    0.2564   -1.2689    1.1030 C   0  0  0  0  0  0  0  0  0  0  0  0
   -0.3201   -0.3258    1.9196 N   0  0  0  0  0  0  0  0  0  0  0  0
   -1.1107   -0.9372    2.8965 C   0  0  0  0  0  0  0  0  0  0  0  0
   -1.0235   -2.2911    2.6858 C   0  0  0  0  0  0  0  0  0  0  0  0
   -0.1265    1.0962    1.7761 C   0  0  0  0  0  0  0  0  0  0  0  0
    0.7337    1.7640    2.6752 C   0  0  0  0  0  0  0  0  0  0  0  0
    0.9457    3.1351    2.4611 C   0  0  0  0  0  0  0  0  0  0  0  0
    0.3218    3.8344    1.4124 C   0  0  0  0  0  0  0  0  0  0  0  0
   -0.5758    3.1385    0.5855 C   0  0  0  0  0  0  0  0  0  0  0  0
   -0.8316    1.7657    0.7528 C   0  0  0  0  0  0  0  0  0  0  0  0
    1.3652    1.0620    3.8470 C   0  0  0  0  0  0  0  0  0  0  0  0
    0.6147    5.2954    1.1828 C   0  0  0  0  0  0  0  0  0  0  0  0
   -1.8605    1.0634   -0.0928 C   0  0  0  0  0  0  0  0  0  0  0  0
   -2.2576   -3.7520    0.0010 C   0  0  0  0  0  0  0  0  0  0  0  0
    1.0045   -7.5060   -0.9384 C   0  0  0  0  0  0  0  0  0  0  0  0
    2.2933   -3.7944    2.2608 C   0  0  0  0  0  0  0  0  0  0  0  0
   -2.0160   -0.0655    4.0520 Cl  0  0  0  0  0  0  0  0  0  0  0  0
   -1.7218   -3.5798    3.5615 Cl  0  0  0  0  0  0  0  0  0  0  0  0
    1.6262    3.6720    3.1397 H   0  0  0  0  0  0  0  0  0  0  0  0
   -1.1118    3.6796   -0.2094 H   0  0  0  0  0  0  0  0  0  0  0  0
    2.2447    1.6261    4.2092 H   0  0  0  0  0  0  0  0  0  0  0  0
    1.7026    0.0454    3.5732 H   0  0  0  0  0  0  0  0  0  0  0  0
    0.6441    0.9803    4.6878 H   0  0  0  0  0  0  0  0  0  0  0  0
    0.7296    5.8432    2.1390 H   0  0  0  0  0  0  0  0  0  0  0  0
   -0.1851    5.7854    0.5947 H   0  0  0  0  0  0  0  0  0  0  0  0
    1.5646    5.4214    0.6205 H   0  0  0  0  0  0  0  0  0  0  0  0
   -2.4593    1.7989   -0.6616 H   0  0  0  0  0  0  0  0  0  0  0  0
   -2.5537    0.4668    0.5353 H   0  0  0  0  0  0  0  0  0  0  0  0
   -1.4074    0.3555   -0.8178 H   0  0  0  0  0  0  0  0  0  0  0  0
   -1.3211   -6.0631   -1.0835 H   0  0  0  0  0  0  0  0  0  0  0  0
    2.5507   -6.1136    0.8477 H   0  0  0  0  0  0  0  0  0  0  0  0
   -2.2032   -2.6528   -0.1044 H   0  0  0  0  0  0  0  0  0  0  0  0
   -2.9036   -3.9865    0.8737 H   0  0  0  0  0  0  0  0  0  0  0  0
   -2.7513   -4.1538   -0.9033 H   0  0  0  0  0  0  0  0  0  0  0  0
    0.0983   -8.1100   -1.1394 H   0  0  0  0  0  0  0  0  0  0  0  0
    1.7110   -8.1230   -0.3495 H   0  0  0  0  0  0  0  0  0  0  0  0
    1.4859   -7.3024   -1.9190 H   0  0  0  0  0  0  0  0  0  0  0  0
    1.8069   -3.6365    3.2464 H   0  0  0  0  0  0  0  0  0  0  0  0
    2.6635   -2.8011    1.9301 H   0  0  0  0  0  0  0  0  0  0  0  0
    3.1593   -4.4654    2.4116 H   0  0  0  0  0  0  0  0  0  0  0  0
  1  2  1  0  0  0  0
  1  7  1  0  0  0  0
  2  3  1  0  0  0  0
  2  4  1  0  0  0  0
  4  5  1  0  0  0  0
  4  6  1  0  0  0  0
  7  8  1  0  0  0  0
  4  7  1  0  0  0  0
  2  8  1  0  0  0  0
  8  9  1  0  0  0  0
  8 10  1  0  0  0  0
  7 11  1  0  0  0  0
  7 12  1  0  0  0  0
 13 14  2  0  0  0  0
 13 18  1  0  0  0  0
 13 35  1  0  0  0  0
 14 15  1  0  0  0  0
 14 19  1  0  0  0  0
 15 16  2  0  0  0  0
 15 33  1  0  0  0  0
 16 17  1  0  0  0  0
 16 49  1  0  0  0  0
 17 18  2  0  0  0  0
 17 34  1  0  0  0  0
 18 50  1  0  0  0  0
 19 20  1  0  0  0  0
 19 23  1  0  0  0  0
 20 21  1  0  0  0  0
 21 22  1  0  0  0  0
 21 24  1  0  0  0  0
 22 23  2  0  0  0  0
 22 36  1  0  0  0  0
 23 37  1  0  0  0  0
 24 25  1  0  0  0  0
 24 29  2  0  0  0  0
 25 26  2  0  0  0  0
 25 30  1  0  0  0  0
 26 27  1  0  0  0  0
 26 38  1  0  0  0  0
 27 28  2  0  0  0  0
 27 31  1  0  0  0  0
 28 29  1  0  0  0  0
 28 39  1  0  0  0  0
 29 32  1  0  0  0  0
 30 40  1  0  0  0  0
 30 41  1  0  0  0  0
 30 42  1  0  0  0  0
 31 43  1  0  0  0  0
 31 44  1  0  0  0  0
 31 45  1  0  0  0  0
 32 46  1  0  0  0  0
 32 47  1  0  0  0  0
 32 48  1  0  0  0  0
 33 51  1  0  0  0  0
 33 52  1  0  0  0  0
 33 53  1  0  0  0  0
 34 54  1  0  0  0  0
 34 55  1  0  0  0  0
 34 56  1  0  0  0  0
 35 57  1  0  0  0  0
 35 58  1  0  0  0  0
 35 59  1  0  0  0  0
  7 20  1  0  0  0  0
M  END
>  <DFT-ENERGY>
-2974.51301578

$$$$
