DClIMes-4_A1
  CDK     08122417503D

 73 77  0  0  0  0  0  0  0  0999 V2000
    0.6704   -0.3041   -0.0775 Ru  0  0  0  0  0  0  0  0  0  0  0  0
    2.4482   -0.3041   -1.4667 O   0  0  0  0  0  0  0  0  0  0  0  0
    1.8806   -1.2374    0.9266 C   0  0  0  0  0  0  0  0  0  0  0  0
    1.6478   -1.5303    1.9493 H   0  0  0  0  0  0  0  0  0  0  0  0
    2.6837    0.4711   -2.6925 C   0  0  0  0  0  0  0  0  0  0  0  0
    3.0891   -0.2301   -3.4522 H   0  0  0  0  0  0  0  0  0  0  0  0
    1.2631    0.9190   -3.0059 C   0  0  0  0  0  0  0  0  0  0  0  0
    1.1953    1.4291   -3.9699 H   0  0  0  0  0  0  0  0  0  0  0  0
    0.8782    1.6102   -2.2275 H   0  0  0  0  0  0  0  0  0  0  0  0
    0.5721    0.0515   -3.0234 H   0  0  0  0  0  0  0  0  0  0  0  0
    3.6264    1.6134   -2.3595 C   0  0  0  0  0  0  0  0  0  0  0  0
    3.3100    2.0988   -1.4145 H   0  0  0  0  0  0  0  0  0  0  0  0
    3.6226    2.3855   -3.1354 H   0  0  0  0  0  0  0  0  0  0  0  0
    4.6592    1.2817   -2.2110 H   0  0  0  0  0  0  0  0  0  0  0  0
    3.4404   -1.1025   -0.9617 C   0  0  0  0  0  0  0  0  0  0  0  0
    4.6095   -1.4513   -1.6147 C   0  0  0  0  0  0  0  0  0  0  0  0
    4.8289   -1.1007   -2.6205 H   0  0  0  0  0  0  0  0  0  0  0  0
    5.5107   -2.2824   -0.9572 C   0  0  0  0  0  0  0  0  0  0  0  0
    6.4332   -2.5700   -1.4660 H   0  0  0  0  0  0  0  0  0  0  0  0
    5.2607   -2.7540    0.3281 C   0  0  0  0  0  0  0  0  0  0  0  0
    5.9855   -3.3987    0.8224 H   0  0  0  0  0  0  0  0  0  0  0  0
    4.0910   -2.3937    0.9697 C   0  0  0  0  0  0  0  0  0  0  0  0
    3.8978   -2.7483    1.9810 H   0  0  0  0  0  0  0  0  0  0  0  0
    3.1555   -1.5782    0.3303 C   0  0  0  0  0  0  0  0  0  0  0  0
    1.2745    1.9040    0.4869 Cl  0  0  0  0  0  0  0  0  0  0  0  0
   -0.1369   -1.9772   -1.4106 Cl  0  0  0  0  0  0  0  0  0  0  0  0
    0.3158   -0.7046    4.2725 C   0  0  0  0  0  0  0  0  0  0  0  0
   -0.3986   -1.4158    3.2782 C   0  0  0  0  0  0  0  0  0  0  0  0
   -0.3389   -2.8275    3.2006 C   0  0  0  0  0  0  0  0  0  0  0  0
    0.3870   -3.5224    4.1753 C   0  0  0  0  0  0  0  0  0  0  0  0
    1.0567   -2.8337    5.1968 C   0  0  0  0  0  0  0  0  0  0  0  0
    1.0313   -1.4306    5.2304 C   0  0  0  0  0  0  0  0  0  0  0  0
   -1.2291   -0.6906    2.3486 N   0  0  0  0  0  0  0  0  0  0  0  0
   -0.9156   -0.2391    1.0514 C   0  0  0  0  0  0  0  0  0  0  0  0
   -2.1137    0.3976    0.6193 N   0  0  0  0  0  0  0  0  0  0  0  0
   -3.1142    0.3325    1.6322 C   0  0  0  0  0  0  0  0  0  0  0  0
   -2.5693   -0.3379    2.7018 C   0  0  0  0  0  0  0  0  0  0  0  0
   -2.3704    1.0435   -0.6474 C   0  0  0  0  0  0  0  0  0  0  0  0
   -2.1487    2.4360   -0.7814 C   0  0  0  0  0  0  0  0  0  0  0  0
   -2.4625    3.0564   -1.9994 C   0  0  0  0  0  0  0  0  0  0  0  0
   -2.9973    2.3226   -3.0652 C   0  0  0  0  0  0  0  0  0  0  0  0
   -3.2226    0.9466   -2.9168 C   0  0  0  0  0  0  0  0  0  0  0  0
   -2.9209    0.2916   -1.7161 C   0  0  0  0  0  0  0  0  0  0  0  0
   -1.6056    3.2700    0.3277 C   0  0  0  0  0  0  0  0  0  0  0  0
   -3.3404    2.9946   -4.3545 C   0  0  0  0  0  0  0  0  0  0  0  0
   -3.2035   -1.1676   -1.6030 C   0  0  0  0  0  0  0  0  0  0  0  0
   -1.0049   -3.5470    2.0786 C   0  0  0  0  0  0  0  0  0  0  0  0
    1.8059   -3.5826    6.2494 C   0  0  0  0  0  0  0  0  0  0  0  0
    0.3219    0.7853    4.2724 C   0  0  0  0  0  0  0  0  0  0  0  0
   -4.6455    0.9935    1.4351 Cl  0  0  0  0  0  0  0  0  0  0  0  0
   -3.2358   -0.7300    4.1922 Cl  0  0  0  0  0  0  0  0  0  0  0  0
   -2.2892    4.1251   -2.1093 H   0  0  0  0  0  0  0  0  0  0  0  0
   -3.6406    0.3758   -3.7438 H   0  0  0  0  0  0  0  0  0  0  0  0
   -2.3434    4.0047    0.6769 H   0  0  0  0  0  0  0  0  0  0  0  0
   -0.7066    3.8241    0.0036 H   0  0  0  0  0  0  0  0  0  0  0  0
   -1.2769    2.6876    1.2022 H   0  0  0  0  0  0  0  0  0  0  0  0
   -2.9954    4.0360   -4.3986 H   0  0  0  0  0  0  0  0  0  0  0  0
   -4.4294    3.0084   -4.5123 H   0  0  0  0  0  0  0  0  0  0  0  0
   -2.8969    2.4709   -5.2136 H   0  0  0  0  0  0  0  0  0  0  0  0
   -2.7517   -1.7256   -2.4420 H   0  0  0  0  0  0  0  0  0  0  0  0
   -4.2834   -1.3678   -1.6104 H   0  0  0  0  0  0  0  0  0  0  0  0
   -2.7852   -1.6306   -0.6963 H   0  0  0  0  0  0  0  0  0  0  0  0
    0.4295   -4.6090    4.1363 H   0  0  0  0  0  0  0  0  0  0  0  0
    1.5747   -0.9000    6.0097 H   0  0  0  0  0  0  0  0  0  0  0  0
   -2.0972   -3.4187    2.1025 H   0  0  0  0  0  0  0  0  0  0  0  0
   -0.8026   -4.6253    2.0757 H   0  0  0  0  0  0  0  0  0  0  0  0
   -0.6592   -3.1556    1.0968 H   0  0  0  0  0  0  0  0  0  0  0  0
    1.8489   -4.6629    6.0583 H   0  0  0  0  0  0  0  0  0  0  0  0
    1.3366   -3.4489    7.2361 H   0  0  0  0  0  0  0  0  0  0  0  0
    2.8437   -3.2292    6.3361 H   0  0  0  0  0  0  0  0  0  0  0  0
   -0.6845    1.1950    4.4470 H   0  0  0  0  0  0  0  0  0  0  0  0
    0.6614    1.1792    3.2915 H   0  0  0  0  0  0  0  0  0  0  0  0
    0.9867    1.2145    5.0322 H   0  0  0  0  0  0  0  0  0  0  0  0
  1  2  1  0  0  0  0
  1  3  2  0  0  0  0
  3  4  1  0  0  0  0
  2  5  1  0  0  0  0
  5  6  1  0  0  0  0
  5  7  1  0  0  0  0
  7  8  1  0  0  0  0
  7  9  1  0  0  0  0
  7 10  1  0  0  0  0
  5 11  1  0  0  0  0
 11 12  1  0  0  0  0
 11 13  1  0  0  0  0
 11 14  1  0  0  0  0
  2 15  1  0  0  0  0
 15 24  1  0  0  0  0
 15 16  2  0  0  0  0
 16 17  1  0  0  0  0
 16 18  1  0  0  0  0
 18 19  1  0  0  0  0
 18 20  2  0  0  0  0
 20 21  1  0  0  0  0
 20 22  1  0  0  0  0
 22 24  2  0  0  0  0
 22 23  1  0  0  0  0
  3 24  1  0  0  0  0
  1 25  1  0  0  0  0
  1 26  1  0  0  0  0
 27 28  2  0  0  0  0
 27 32  1  0  0  0  0
 27 49  1  0  0  0  0
 28 29  1  0  0  0  0
 28 33  1  0  0  0  0
 29 30  2  0  0  0  0
 29 47  1  0  0  0  0
 30 31  1  0  0  0  0
 30 63  1  0  0  0  0
 31 32  2  0  0  0  0
 31 48  1  0  0  0  0
 32 64  1  0  0  0  0
 33 34  1  0  0  0  0
 33 37  1  0  0  0  0
 34 35  1  0  0  0  0
 35 36  1  0  0  0  0
 35 38  1  0  0  0  0
 36 37  2  0  0  0  0
 36 50  1  0  0  0  0
 37 51  1  0  0  0  0
 38 39  1  0  0  0  0
 38 43  2  0  0  0  0
 39 40  2  0  0  0  0
 39 44  1  0  0  0  0
 40 41  1  0  0  0  0
 40 52  1  0  0  0  0
 41 42  2  0  0  0  0
 41 45  1  0  0  0  0
 42 43  1  0  0  0  0
 42 53  1  0  0  0  0
 43 46  1  0  0  0  0
 44 54  1  0  0  0  0
 44 55  1  0  0  0  0
 44 56  1  0  0  0  0
 45 57  1  0  0  0  0
 45 58  1  0  0  0  0
 45 59  1  0  0  0  0
 46 60  1  0  0  0  0
 46 61  1  0  0  0  0
 46 62  1  0  0  0  0
 47 65  1  0  0  0  0
 47 66  1  0  0  0  0
 47 67  1  0  0  0  0
 48 68  1  0  0  0  0
 48 69  1  0  0  0  0
 48 70  1  0  0  0  0
 49 71  1  0  0  0  0
 49 72  1  0  0  0  0
 49 73  1  0  0  0  0
  1 34  1  0  0  0  0
M  END
> <FrozenCore-PM6_ENERGY>
39.662

> <RMSD_CONF_CG-CS>
0.308958

> <RMSD_CONF_GO-CS>
0.000000

> <UID>


> <DESCRIPTOR_DEFINITION_1>
desc1=( echo "1 * ( e( $hartree_to_kcalmol * ( ( $freeEnergyZ - $freeEnergyD ) - ( $freeEnergyX + 2*$G_Ethene - $freeEnergyD - 2*$G_Propene ) - $DDG_reference_HGII ) / $kT ) ) " | bc -l )

> <DESCRIPTOR_DEFINITION_2>
desc1=( echo "1 * ( e( $hartree_to_kcalmol * ( ( $freeEnergyZ - $freeEnergyD ) - ( $freeEnergyX + 2*$G_Ethene - $freeEnergyD - 2*$G_Propene ) - $DDG_reference_HGII ) / $kT ) ) " | bc -l )

> <DESCRIPTOR_DEFINITION_3>
desc1=( echo "1 * ( e( $hartree_to_kcalmol * ( ( $freeEnergyZ - $freeEnergyD ) - ( $freeEnergyX + 2*$G_Ethene - $freeEnergyD - 2*$G_Propene ) - $DDG_reference_HGII ) / $kT ) ) " | bc -l )

> <WEIGHT_DEFINITION_1>
w1=$( echo "1 / ( 1 + e( $hartree_to_kcalmol * ( ( ( $freeEnergyX + 2*$G_Ethene - $freeEnergyD - 2*$G_Propene ) ) - ( $DG_referenceProductionBarrier + $magnitude4 ) ) / $kT ) )" | bc -l )

> <WEIGHT_DEFINITION_2>
w1=$( echo "1 / ( 1 + e( $hartree_to_kcalmol * ( ( ( $freeEnergyX + 2*$G_Ethene - $freeEnergyD - 2*$G_Propene ) ) - ( $DG_referenceProductionBarrier + $magnitude4 ) ) / $kT ) )" | bc -l )

> <WEIGHT_DEFINITION_3>
w1=$( echo "1 / ( 1 + e( $hartree_to_kcalmol * ( ( ( $freeEnergyX + 2*$G_Ethene - $freeEnergyD - 2*$G_Propene ) ) - ( $DG_referenceProductionBarrier + $magnitude4 ) ) / $kT ) )" | bc -l )

> <WEIGHT_DEFINITION_4>
w1=$( echo "1 / ( 1 + e( $hartree_to_kcalmol * ( ( ( $freeEnergyX + 2*$G_Ethene - $freeEnergyD - 2*$G_Propene ) ) - ( $DG_referenceProductionBarrier + $magnitude4 ) ) / $kT ) )" | bc -l )

> <CALCULATION_OF_OVERALL_FITNESS>
fitness=$( echo "( $desc1 + $desc2 + $desc3 ) * ( $w1 * $w2 * $w3 * $w4 )" | bc -l )

> <freeEnergyA>
-3319.79144271

> <freeEnergyF>
-3319.77550313

> <freeEnergyE>
-3319.79144271

> <freeEnergyC>
-2974.53442163

> <freeEnergyL>
-1841.93264322

> <freeEnergyX>
-3053.06924354

> <freeEnergyZ>
-2974.51301553

> <freeEnergyD>
-2974.55762043

> <G_Propene>
-117.738020895

> <G_Ethene>
-78.4716324751

> <G_HoveydaProd>
-502.204109499

> <G_SIMes>
-924.27249048

> <G_HG_RuCl2_SIMes>
-2402.13728523

> <DG_referenceProductionBarrier>
0.01468968

> <DG_referencePrecursorStabilityHII>
-0.0052201621

> <DG_referencePrecursorStabilityHI>
0.0117775312

> <DDG_referencePrecursorStability>
.0169976933

> <DG_referenceSynt>
0.0226072217

> <hartree_to_kcalmol>
627.49467516

> <boltzmann_constant>
0.0000000000000000000000138066

> <avogadro_number>
602214000000000000000000

> <jmol_to_kcalmol>
0.00023901

> <temp>
313.15

> <kT>
.6223089948281258706000000000

> <magnitude1>
1.43290809

> <magnitude2>
2.86581618

> <magnitude3>
4.29872427

> <magnitude4>
5.73163236

> <DFT_IDENTIFIER>
1723659897717

> <DFT_MACHINE>
158.39.114.73

> <XTB_IDENTIFIER>
1723659306473

> <XTB_MACHINE>
158.39.114.73

> <DESCRIPTOR_1>
3.42137734736107077253

> <DESCRIPTOR_2>
14.715484426770872232

> <DESCRIPTOR_3>
.701347660952956200

> <WEIGHT_1>
.99996759859259934478

> <WEIGHT_2>
.99999998527279728328

> <WEIGHT_3>
.99999999468617443262

> <WEIGHT_4>
.99998953297450582301

> <FITNESS>
18.83740149943588023955

$$$$
