
  CDK     08132407303D

 80 83  0  0  0  0  0  0  0  0999 V2000
   -1.2780   -3.9208   -2.5259 C   0  0  0  0  0  0  0  0  0  0  0  0
   -0.2359   -3.9287   -2.8897 H   0  0  0  0  0  0  0  0  0  0  0  0
   -1.7707   -4.8820   -2.7940 H   0  0  0  0  0  0  0  0  0  0  0  0
   -1.8249   -3.1205   -3.0636 H   0  0  0  0  0  0  0  0  0  0  0  0
   -1.3553   -3.7465   -1.0265 C   0  0  0  0  0  0  0  0  0  0  0  0
   -2.3762   -3.7236   -0.6022 H   0  0  0  0  0  0  0  0  0  0  0  0
   -0.3635   -4.2530   -0.1431 C   0  0  0  0  0  0  0  0  0  0  0  0
    0.6002   -4.5276   -0.6074 H   0  0  0  0  0  0  0  0  0  0  0  0
   -0.7502   -4.9453    1.1420 C   0  0  0  0  0  0  0  0  0  0  0  0
    0.1078   -5.0842    1.8263 H   0  0  0  0  0  0  0  0  0  0  0  0
   -1.1462   -5.9533    0.8912 H   0  0  0  0  0  0  0  0  0  0  0  0
   -1.5501   -4.3811    1.6612 H   0  0  0  0  0  0  0  0  0  0  0  0
    0.6812   -2.4775    0.9256 C   0  0  0  0  0  0  0  0  0  0  0  0
    0.3543   -2.6338    1.9752 H   0  0  0  0  0  0  0  0  0  0  0  0
    1.7408   -2.7098    0.6865 H   0  0  0  0  0  0  0  0  0  0  0  0
   -0.4937   -1.8164   -0.3252 Ru  0  0  0  0  0  0  0  0  0  0  0  0
   -2.3389   -1.8756    1.2248 Cl  0  0  0  0  0  0  0  0  0  0  0  0
    1.2787   -2.0404   -1.9449 Cl  0  0  0  0  0  0  0  0  0  0  0  0
   -0.4003    0.1526   -0.4981 C   0  0  0  0  0  0  0  0  0  0  0  0
   -1.7602    2.1809   -1.3958 C   0  0  0  0  0  0  0  0  0  0  0  0
    0.3291    2.5129   -0.0162 C   0  0  0  0  0  0  0  0  0  0  0  0
   -1.1704    2.8236   -0.1444 C   0  0  0  0  0  0  0  0  0  0  0  0
    0.3943    0.9946    0.1923 N   0  0  0  0  0  0  0  0  0  0  0  0
   -1.3408    0.6914   -1.6010 C   0  0  0  0  0  0  0  0  0  0  0  0
   -1.4615    2.7731   -2.2834 H   0  0  0  0  0  0  0  0  0  0  0  0
   -1.6811    2.4506    0.7662 H   0  0  0  0  0  0  0  0  0  0  0  0
   -2.8647    2.2504   -1.3487 H   0  0  0  0  0  0  0  0  0  0  0  0
   -1.3164    3.9228   -0.1746 H   0  0  0  0  0  0  0  0  0  0  0  0
   -0.6820    0.4733   -3.0046 C   0  0  0  0  0  0  0  0  0  0  0  0
   -2.6040   -0.2203   -1.5816 C   0  0  0  0  0  0  0  0  0  0  0  0
    0.9508    3.2716    1.1635 C   0  0  0  0  0  0  0  0  0  0  0  0
    0.8320    4.3549    0.9629 H   0  0  0  0  0  0  0  0  0  0  0  0
    2.0309    3.0600    1.2646 H   0  0  0  0  0  0  0  0  0  0  0  0
    0.4734    3.0472    2.1289 H   0  0  0  0  0  0  0  0  0  0  0  0
    1.0938    2.9533   -1.2772 C   0  0  0  0  0  0  0  0  0  0  0  0
    2.1818    2.8322   -1.1490 H   0  0  0  0  0  0  0  0  0  0  0  0
    0.8934    4.0297   -1.4529 H   0  0  0  0  0  0  0  0  0  0  0  0
    0.7945    2.4041   -2.1821 H   0  0  0  0  0  0  0  0  0  0  0  0
    1.2317    0.5345    1.3005 C   0  0  0  0  0  0  0  0  0  0  0  0
    2.9150   -0.0336    3.4824 C   0  0  0  0  0  0  0  0  0  0  0  0
    0.6693    0.4320    2.6094 C   0  0  0  0  0  0  0  0  0  0  0  0
    2.6201    0.3188    1.0791 C   0  0  0  0  0  0  0  0  0  0  0  0
    3.4356    0.0273    2.1899 C   0  0  0  0  0  0  0  0  0  0  0  0
    1.5460    0.1602    3.6774 C   0  0  0  0  0  0  0  0  0  0  0  0
    4.5094   -0.1424    2.0284 H   0  0  0  0  0  0  0  0  0  0  0  0
    1.1332    0.0907    4.6927 H   0  0  0  0  0  0  0  0  0  0  0  0
    3.5732   -0.2419    4.3384 H   0  0  0  0  0  0  0  0  0  0  0  0
    3.3062    0.4151   -0.2794 C   0  0  0  0  0  0  0  0  0  0  0  0
    2.5230    0.5152   -1.0555 H   0  0  0  0  0  0  0  0  0  0  0  0
   -0.8188    0.5485    2.9488 C   0  0  0  0  0  0  0  0  0  0  0  0
   -1.3971    0.3946    2.0172 H   0  0  0  0  0  0  0  0  0  0  0  0
   -1.2451   -0.5635    3.9290 C   0  0  0  0  0  0  0  0  0  0  0  0
   -2.3500   -0.6220    3.9628 H   0  0  0  0  0  0  0  0  0  0  0  0
   -0.8856   -0.3569    4.9589 H   0  0  0  0  0  0  0  0  0  0  0  0
   -0.8771   -1.5558    3.6127 H   0  0  0  0  0  0  0  0  0  0  0  0
   -1.2181    1.8977    3.5817 C   0  0  0  0  0  0  0  0  0  0  0  0
   -0.5505    2.1538    4.4309 H   0  0  0  0  0  0  0  0  0  0  0  0
   -2.2513    1.8268    3.9782 H   0  0  0  0  0  0  0  0  0  0  0  0
   -1.2045    2.7448    2.8713 H   0  0  0  0  0  0  0  0  0  0  0  0
    4.1162   -0.8523   -0.6052 C   0  0  0  0  0  0  0  0  0  0  0  0
    3.4800   -1.7545   -0.5756 H   0  0  0  0  0  0  0  0  0  0  0  0
    4.9704   -0.9784    0.0918 H   0  0  0  0  0  0  0  0  0  0  0  0
    4.5313   -0.7776   -1.6306 H   0  0  0  0  0  0  0  0  0  0  0  0
    4.2521    1.6327   -0.3281 C   0  0  0  0  0  0  0  0  0  0  0  0
    4.6570    1.7704   -1.3515 H   0  0  0  0  0  0  0  0  0  0  0  0
    5.1139    1.4839    0.3548 H   0  0  0  0  0  0  0  0  0  0  0  0
    3.7604    2.5769   -0.0222 H   0  0  0  0  0  0  0  0  0  0  0  0
   -2.2775   -1.2913   -1.6527 H   0  0  0  0  0  0  0  0  0  0  0  0
   -3.1165   -0.1423   -0.6048 H   0  0  0  0  0  0  0  0  0  0  0  0
   -3.5713    0.0232   -2.7455 C   0  0  0  0  0  0  0  0  0  0  0  0
   -4.0072    1.0433   -2.6587 H   0  0  0  0  0  0  0  0  0  0  0  0
   -4.4246   -0.6803   -2.6567 H   0  0  0  0  0  0  0  0  0  0  0  0
    0.2427    1.0709   -3.1079 H   0  0  0  0  0  0  0  0  0  0  0  0
   -0.3440   -0.5798   -3.0681 H   0  0  0  0  0  0  0  0  0  0  0  0
   -1.6376    0.7724   -4.1654 C   0  0  0  0  0  0  0  0  0  0  0  0
   -1.0945    0.6171   -5.1206 H   0  0  0  0  0  0  0  0  0  0  0  0
   -1.9482    1.8414   -4.1583 H   0  0  0  0  0  0  0  0  0  0  0  0
   -2.8795   -0.1212   -4.1032 C   0  0  0  0  0  0  0  0  0  0  0  0
   -2.5685   -1.1809   -4.2457 H   0  0  0  0  0  0  0  0  0  0  0  0
   -3.5821    0.1166   -4.9285 H   0  0  0  0  0  0  0  0  0  0  0  0
  1  2  1  0  0  0  0
  1  5  1  0  0  0  0
  3  1  1  0  0  0  0
  4  1  1  0  0  0  0
  5  6  1  0  0  0  0
  5 16  1  0  0  0  0
  5  7  1  0  0  0  0
  7  9  1  0  0  0  0
  7  8  1  0  0  0  0
  9 10  1  0  0  0  0
 11  9  1  0  0  0  0
 12  9  1  0  0  0  0
 13 14  1  0  0  0  0
 13 15  1  0  0  0  0
 13  7  1  0  0  0  0
 16 13  1  0  0  0  0
 16 17  1  0  0  0  0
 16 18  1  0  0  0  0
 19 23  1  0  0  0  0
 19 24  1  0  0  0  0
 20 25  1  0  0  0  0
 20 27  1  0  0  0  0
 20 22  1  0  0  0  0
 20 24  1  0  0  0  0
 21 23  1  0  0  0  0
 21 22  1  0  0  0  0
 21 31  1  0  0  0  0
 21 35  1  0  0  0  0
 22 26  1  0  0  0  0
 22 28  1  0  0  0  0
 23 39  1  0  0  0  0
 24 29  1  0  0  0  0
 24 30  1  0  0  0  0
 29 73  1  0  0  0  0
 29 74  1  0  0  0  0
 29 75  1  0  0  0  0
 30 68  1  0  0  0  0
 30 69  1  0  0  0  0
 30 70  1  0  0  0  0
 31 32  1  0  0  0  0
 31 33  1  0  0  0  0
 31 34  1  0  0  0  0
 35 36  1  0  0  0  0
 35 37  1  0  0  0  0
 35 38  1  0  0  0  0
 39 42  2  0  0  0  0
 39 41  1  0  0  0  0
 40 43  2  0  0  0  0
 40 44  1  0  0  0  0
 40 47  1  0  0  0  0
 41 44  2  0  0  0  0
 41 50  1  0  0  0  0
 42 43  1  0  0  0  0
 42 48  1  0  0  0  0
 43 45  1  0  0  0  0
 44 46  1  0  0  0  0
 48 49  1  0  0  0  0
 48 60  1  0  0  0  0
 48 64  1  0  0  0  0
 50 51  1  0  0  0  0
 50 52  1  0  0  0  0
 50 56  1  0  0  0  0
 52 53  1  0  0  0  0
 52 54  1  0  0  0  0
 52 55  1  0  0  0  0
 56 57  1  0  0  0  0
 56 58  1  0  0  0  0
 56 59  1  0  0  0  0
 60 61  1  0  0  0  0
 60 62  1  0  0  0  0
 60 63  1  0  0  0  0
 64 65  1  0  0  0  0
 64 66  1  0  0  0  0
 64 67  1  0  0  0  0
 70 71  1  0  0  0  0
 70 72  1  0  0  0  0
 70 78  1  0  0  0  0
 75 76  1  0  0  0  0
 75 77  1  0  0  0  0
 75 78  1  0  0  0  0
 78 79  1  0  0  0  0
 78 80  1  0  0  0  0
 16 19  1  0  0  0  0
M  END
>  <DFT-ENERGY>
-2201.44837645

$$$$
