
  CDK     08152400223D

 74 77  0  0  0  0  0  0  0  0999 V2000
    1.4168   -1.6798    0.1821 Ru  0  0  0  0  0  0  0  0  0  0  0  0
    2.8060   -1.8128   -1.2015 C   0  0  0  0  0  0  0  0  0  0  0  0
    2.4492   -2.0467   -2.2178 H   0  0  0  0  0  0  0  0  0  0  0  0
    3.1332   -3.0995   -0.3422 C   0  0  0  0  0  0  0  0  0  0  0  0
    2.9927   -3.9707   -1.0070 H   0  0  0  0  0  0  0  0  0  0  0  0
    2.2232   -3.3333    0.9208 C   0  0  0  0  0  0  0  0  0  0  0  0
    2.7626   -3.2080    1.8758 H   0  0  0  0  0  0  0  0  0  0  0  0
    1.5852   -4.2302    0.8373 H   0  0  0  0  0  0  0  0  0  0  0  0
    4.1667   -2.9768    0.0308 H   0  0  0  0  0  0  0  0  0  0  0  0
    3.5878   -1.0349   -1.1448 H   0  0  0  0  0  0  0  0  0  0  0  0
   -0.0469   -3.1341   -1.0714 Cl  0  0  0  0  0  0  0  0  0  0  0  0
    2.9866   -0.5141    1.5449 Cl  0  0  0  0  0  0  0  0  0  0  0  0
   -0.1830   -0.5873    0.4978 C   0  0  0  0  0  0  0  0  0  0  0  0
   -2.4448   -0.3916    1.6790 C   0  0  0  0  0  0  0  0  0  0  0  0
   -2.0455    0.7409   -0.5372 C   0  0  0  0  0  0  0  0  0  0  0  0
   -2.5717    0.9087    0.8965 C   0  0  0  0  0  0  0  0  0  0  0  0
   -0.5846    0.2910   -0.4354 N   0  0  0  0  0  0  0  0  0  0  0  0
   -0.9714   -0.8344    1.7898 C   0  0  0  0  0  0  0  0  0  0  0  0
   -3.0391   -1.1912    1.1938 H   0  0  0  0  0  0  0  0  0  0  0  0
   -2.0183    1.7240    1.4051 H   0  0  0  0  0  0  0  0  0  0  0  0
   -2.8682   -0.2657    2.6935 H   0  0  0  0  0  0  0  0  0  0  0  0
   -3.6309    1.2314    0.8377 H   0  0  0  0  0  0  0  0  0  0  0  0
   -0.8688   -2.3305    2.1845 C   0  0  0  0  0  0  0  0  0  0  0  0
   -0.2533    0.0143    2.8966 C   0  0  0  0  0  0  0  0  0  0  0  0
   -2.1624    2.0554   -1.3105 C   0  0  0  0  0  0  0  0  0  0  0  0
   -3.2389    2.2778   -1.4484 H   0  0  0  0  0  0  0  0  0  0  0  0
   -1.6974    1.9916   -2.3101 H   0  0  0  0  0  0  0  0  0  0  0  0
   -1.7022    2.9056   -0.7783 H   0  0  0  0  0  0  0  0  0  0  0  0
   -2.8823   -0.3534   -1.2429 C   0  0  0  0  0  0  0  0  0  0  0  0
   -2.8320   -0.2658   -2.3397 H   0  0  0  0  0  0  0  0  0  0  0  0
   -3.9458   -0.2350   -0.9521 H   0  0  0  0  0  0  0  0  0  0  0  0
   -2.5481   -1.3705   -0.9649 H   0  0  0  0  0  0  0  0  0  0  0  0
    0.4304    0.7878   -1.3758 C   0  0  0  0  0  0  0  0  0  0  0  0
    2.3501    1.9052   -3.1085 C   0  0  0  0  0  0  0  0  0  0  0  0
    1.3443    1.7749   -0.8787 C   0  0  0  0  0  0  0  0  0  0  0  0
    0.4930    0.3500   -2.7328 C   0  0  0  0  0  0  0  0  0  0  0  0
    1.4674    0.9308   -3.5689 C   0  0  0  0  0  0  0  0  0  0  0  0
    2.2850    2.3126   -1.7745 C   0  0  0  0  0  0  0  0  0  0  0  0
    1.5241    0.6019   -4.6157 H   0  0  0  0  0  0  0  0  0  0  0  0
    2.9905    3.0689   -1.4098 H   0  0  0  0  0  0  0  0  0  0  0  0
    3.0961    2.3449   -3.7865 H   0  0  0  0  0  0  0  0  0  0  0  0
   -0.4306   -0.6737   -3.3878 C   0  0  0  0  0  0  0  0  0  0  0  0
   -1.0009   -1.1806   -2.5917 H   0  0  0  0  0  0  0  0  0  0  0  0
    1.3781    2.2779    0.5657 C   0  0  0  0  0  0  0  0  0  0  0  0
    1.1292    1.4191    1.2138 H   0  0  0  0  0  0  0  0  0  0  0  0
    2.7733    2.7568    1.0012 C   0  0  0  0  0  0  0  0  0  0  0  0
    2.7856    2.8796    2.1023 H   0  0  0  0  0  0  0  0  0  0  0  0
    3.0298    3.7429    0.5597 H   0  0  0  0  0  0  0  0  0  0  0  0
    3.5555    2.0215    0.7406 H   0  0  0  0  0  0  0  0  0  0  0  0
    0.3734    3.4119    0.8355 C   0  0  0  0  0  0  0  0  0  0  0  0
    0.5167    4.2507    0.1228 H   0  0  0  0  0  0  0  0  0  0  0  0
    0.5229    3.8096    1.8601 H   0  0  0  0  0  0  0  0  0  0  0  0
   -0.6773    3.0800    0.7636 H   0  0  0  0  0  0  0  0  0  0  0  0
    0.3314   -1.7792   -4.1398 C   0  0  0  0  0  0  0  0  0  0  0  0
    0.9780   -2.3569   -3.4565 H   0  0  0  0  0  0  0  0  0  0  0  0
    0.9400   -1.3777   -4.9755 H   0  0  0  0  0  0  0  0  0  0  0  0
   -0.3966   -2.4941   -4.5733 H   0  0  0  0  0  0  0  0  0  0  0  0
   -1.3928    0.0145   -4.3779 C   0  0  0  0  0  0  0  0  0  0  0  0
   -2.1149   -0.7215   -4.7869 H   0  0  0  0  0  0  0  0  0  0  0  0
   -0.8327    0.4442   -5.2341 H   0  0  0  0  0  0  0  0  0  0  0  0
   -1.9710    0.8410   -3.9218 H   0  0  0  0  0  0  0  0  0  0  0  0
    0.8374   -0.1809    2.8374 H   0  0  0  0  0  0  0  0  0  0  0  0
   -0.3915    1.0935    2.6834 H   0  0  0  0  0  0  0  0  0  0  0  0
   -0.7512   -0.3004    4.3147 C   0  0  0  0  0  0  0  0  0  0  0  0
   -1.8029    0.0389    4.4454 H   0  0  0  0  0  0  0  0  0  0  0  0
   -0.1494    0.2938    5.0335 H   0  0  0  0  0  0  0  0  0  0  0  0
   -1.3636   -2.9499    1.4116 H   0  0  0  0  0  0  0  0  0  0  0  0
    0.2049   -2.6233    2.1633 H   0  0  0  0  0  0  0  0  0  0  0  0
   -1.4038   -2.6227    3.5896 C   0  0  0  0  0  0  0  0  0  0  0  0
   -1.2970   -3.7070    3.7983 H   0  0  0  0  0  0  0  0  0  0  0  0
   -2.4937   -2.4057    3.6418 H   0  0  0  0  0  0  0  0  0  0  0  0
   -0.6565   -1.7942    4.6400 C   0  0  0  0  0  0  0  0  0  0  0  0
    0.4143   -2.0984    4.6459 H   0  0  0  0  0  0  0  0  0  0  0  0
   -1.0520   -1.9961    5.6569 H   0  0  0  0  0  0  0  0  0  0  0  0
  2  4  1  0  0  0  0
  2  1  1  0  0  0  0
  2  3  1  0  0  0  0
  4  6  1  0  0  0  0
  4  5  1  0  0  0  0
  6  1  1  0  0  0  0
  6  8  1  0  0  0  0
  7  6  1  0  0  0  0
  9  4  1  0  0  0  0
 10  2  1  0  0  0  0
  1 11  1  0  0  0  0
  1 12  1  0  0  0  0
 13 17  1  0  0  0  0
 13 18  1  0  0  0  0
 14 19  1  0  0  0  0
 14 21  1  0  0  0  0
 14 16  1  0  0  0  0
 14 18  1  0  0  0  0
 15 17  1  0  0  0  0
 15 16  1  0  0  0  0
 15 25  1  0  0  0  0
 15 29  1  0  0  0  0
 16 20  1  0  0  0  0
 16 22  1  0  0  0  0
 17 33  1  0  0  0  0
 18 23  1  0  0  0  0
 18 24  1  0  0  0  0
 23 67  1  0  0  0  0
 23 68  1  0  0  0  0
 23 69  1  0  0  0  0
 24 62  1  0  0  0  0
 24 63  1  0  0  0  0
 24 64  1  0  0  0  0
 25 26  1  0  0  0  0
 25 27  1  0  0  0  0
 25 28  1  0  0  0  0
 29 30  1  0  0  0  0
 29 31  1  0  0  0  0
 29 32  1  0  0  0  0
 33 36  2  0  0  0  0
 33 35  1  0  0  0  0
 34 37  2  0  0  0  0
 34 38  1  0  0  0  0
 34 41  1  0  0  0  0
 35 38  2  0  0  0  0
 35 44  1  0  0  0  0
 36 37  1  0  0  0  0
 36 42  1  0  0  0  0
 37 39  1  0  0  0  0
 38 40  1  0  0  0  0
 42 43  1  0  0  0  0
 42 54  1  0  0  0  0
 42 58  1  0  0  0  0
 44 45  1  0  0  0  0
 44 46  1  0  0  0  0
 44 50  1  0  0  0  0
 46 47  1  0  0  0  0
 46 48  1  0  0  0  0
 46 49  1  0  0  0  0
 50 51  1  0  0  0  0
 50 52  1  0  0  0  0
 50 53  1  0  0  0  0
 54 55  1  0  0  0  0
 54 56  1  0  0  0  0
 54 57  1  0  0  0  0
 58 59  1  0  0  0  0
 58 60  1  0  0  0  0
 58 61  1  0  0  0  0
 64 65  1  0  0  0  0
 64 66  1  0  0  0  0
 64 72  1  0  0  0  0
 69 70  1  0  0  0  0
 69 71  1  0  0  0  0
 69 72  1  0  0  0  0
 72 73  1  0  0  0  0
 72 74  1  0  0  0  0
  1 13  1  0  0  0  0
M  END
>  <DFT-ENERGY>
-2122.94947308

$$$$
