
  CDK     08212409443D

 61 65  0  0  0  0  0  0  0  0999 V2000
    0.4669   -0.5968   -3.4284 H   0  0  0  0  0  0  0  0  0  0  0  0
    1.6724   -0.3552   -3.4778 C   0  0  0  0  0  0  0  0  0  0  0  0
    1.5145   -0.2407   -4.5745 H   0  0  0  0  0  0  0  0  0  0  0  0
    1.7707    0.8020   -2.5444 C   0  0  0  0  0  0  0  0  0  0  0  0
    2.7375    0.9591   -2.0380 H   0  0  0  0  0  0  0  0  0  0  0  0
    1.2430    1.7230   -2.8447 H   0  0  0  0  0  0  0  0  0  0  0  0
    0.6006   -0.6668   -1.6610 Ru  0  0  0  0  0  0  0  0  0  0  0  0
    2.1655   -1.5939   -2.8844 C   0  0  0  0  0  0  0  0  0  0  0  0
    3.1079   -1.5899   -2.3240 H   0  0  0  0  0  0  0  0  0  0  0  0
    1.9018   -2.5417   -3.3832 H   0  0  0  0  0  0  0  0  0  0  0  0
    2.4400   -1.0734    0.0850 Br  0  0  0  0  0  0  0  0  0  0  0  0
   -1.5818    0.0095   -2.8158 Br  0  0  0  0  0  0  0  0  0  0  0  0
   -0.6536   -1.0267    1.1352 N   0  0  0  0  0  0  0  0  0  0  0  0
   -0.9146    1.0305    0.3951 N   0  0  0  0  0  0  0  0  0  0  0  0
   -0.3444   -0.1718    0.1142 C   0  0  0  0  0  0  0  0  0  0  0  0
   -1.6698   -0.4442    2.0378 C   0  0  0  0  0  0  0  0  0  0  0  0
   -1.5540    1.0449    1.7276 C   0  0  0  0  0  0  0  0  0  0  0  0
   -1.4625   -0.6864    3.0942 H   0  0  0  0  0  0  0  0  0  0  0  0
   -2.6682   -0.8550    1.7711 H   0  0  0  0  0  0  0  0  0  0  0  0
   -2.5312    1.5594    1.6883 H   0  0  0  0  0  0  0  0  0  0  0  0
   -0.8975    1.5849    2.4450 H   0  0  0  0  0  0  0  0  0  0  0  0
   -0.2310   -2.3815    1.3146 C   0  0  0  0  0  0  0  0  0  0  0  0
    0.4470   -2.7221    2.5102 C   0  0  0  0  0  0  0  0  0  0  0  0
    0.7960   -4.0660    2.7192 C   0  0  0  0  0  0  0  0  0  0  0  0
    0.5193   -5.0668    1.7727 C   0  0  0  0  0  0  0  0  0  0  0  0
   -0.1030   -4.6830    0.5736 C   0  0  0  0  0  0  0  0  0  0  0  0
   -0.4843   -3.3545    0.3233 C   0  0  0  0  0  0  0  0  0  0  0  0
    1.3335   -4.3315    3.6431 H   0  0  0  0  0  0  0  0  0  0  0  0
   -0.2977   -5.4404   -0.2018 H   0  0  0  0  0  0  0  0  0  0  0  0
    0.8761   -1.6708    3.5007 C   0  0  0  0  0  0  0  0  0  0  0  0
    1.1742   -0.7421    2.9746 H   0  0  0  0  0  0  0  0  0  0  0  0
    1.7451   -2.0277    4.0851 H   0  0  0  0  0  0  0  0  0  0  0  0
    0.0794   -1.4163    4.2334 H   0  0  0  0  0  0  0  0  0  0  0  0
    0.8799   -6.5067    2.0370 C   0  0  0  0  0  0  0  0  0  0  0  0
    1.7864   -6.5890    2.6685 H   0  0  0  0  0  0  0  0  0  0  0  0
    1.0630   -7.0602    1.0955 H   0  0  0  0  0  0  0  0  0  0  0  0
    0.0598   -7.0318    2.5727 H   0  0  0  0  0  0  0  0  0  0  0  0
   -1.0582   -2.9699   -1.0042 C   0  0  0  0  0  0  0  0  0  0  0  0
   -0.2517   -2.5261   -1.6755 H   0  0  0  0  0  0  0  0  0  0  0  0
   -1.8795   -2.2340   -0.9509 H   0  0  0  0  0  0  0  0  0  0  0  0
   -1.4024   -3.8521   -1.5765 H   0  0  0  0  0  0  0  0  0  0  0  0
   -0.7405    2.2676   -0.3122 C   0  0  0  0  0  0  0  0  0  0  0  0
    0.5051    2.9376   -0.2502 C   0  0  0  0  0  0  0  0  0  0  0  0
    0.6408    4.1421   -0.9606 C   0  0  0  0  0  0  0  0  0  0  0  0
   -0.4235    4.7063   -1.6868 C   0  0  0  0  0  0  0  0  0  0  0  0
   -1.6663    4.0549   -1.6515 C   0  0  0  0  0  0  0  0  0  0  0  0
   -1.8549    2.8444   -0.9616 C   0  0  0  0  0  0  0  0  0  0  0  0
    1.6100    4.6640   -0.9270 H   0  0  0  0  0  0  0  0  0  0  0  0
   -2.5240    4.4978   -2.1814 H   0  0  0  0  0  0  0  0  0  0  0  0
    1.6383    2.4178    0.5898 C   0  0  0  0  0  0  0  0  0  0  0  0
    1.3176    2.2543    1.6403 H   0  0  0  0  0  0  0  0  0  0  0  0
    2.4772    3.1387    0.6032 H   0  0  0  0  0  0  0  0  0  0  0  0
    2.0181    1.4385    0.2341 H   0  0  0  0  0  0  0  0  0  0  0  0
   -0.2304    5.9742   -2.4799 C   0  0  0  0  0  0  0  0  0  0  0  0
   -1.1883    6.5057   -2.6413 H   0  0  0  0  0  0  0  0  0  0  0  0
    0.1961    5.7526   -3.4818 H   0  0  0  0  0  0  0  0  0  0  0  0
    0.4713    6.6678   -1.9756 H   0  0  0  0  0  0  0  0  0  0  0  0
   -3.2310    2.2341   -0.8888 C   0  0  0  0  0  0  0  0  0  0  0  0
   -3.8190    2.6934   -0.0633 H   0  0  0  0  0  0  0  0  0  0  0  0
   -3.1889    1.1418   -0.7304 H   0  0  0  0  0  0  0  0  0  0  0  0
   -3.7898    2.4143   -1.8267 H   0  0  0  0  0  0  0  0  0  0  0  0
  1  2  1  0  0  0  0
  1  7  1  0  0  0  0
  2  3  1  0  0  0  0
  2  4  1  0  0  0  0
  4  5  1  0  0  0  0
  6  4  1  0  0  0  0
  7  8  1  0  0  0  0
  7  4  1  0  0  0  0
  8  2  1  0  0  0  0
  8  9  1  0  0  0  0
 10  8  1  0  0  0  0
  7 11  1  0  0  0  0
  7 12  1  0  0  0  0
 13 15  1  0  0  0  0
 14 15  1  0  0  0  0
 13 16  1  0  0  0  0
 16 17  1  0  0  0  0
 14 17  1  0  0  0  0
 16 18  1  0  0  0  0
 16 19  1  0  0  0  0
 17 20  1  0  0  0  0
 17 21  1  0  0  0  0
 22 23  2  0  0  0  0
 23 24  1  0  0  0  0
 24 25  2  0  0  0  0
 25 26  1  0  0  0  0
 26 27  2  0  0  0  0
 22 27  1  0  0  0  0
 24 28  1  0  0  0  0
 26 29  1  0  0  0  0
 13 22  1  0  0  0  0
 30 31  1  0  0  0  0
 30 32  1  0  0  0  0
 30 33  1  0  0  0  0
 23 30  1  0  0  0  0
 34 35  1  0  0  0  0
 34 36  1  0  0  0  0
 34 37  1  0  0  0  0
 25 34  1  0  0  0  0
 38 39  1  0  0  0  0
 38 40  1  0  0  0  0
 38 41  1  0  0  0  0
 27 38  1  0  0  0  0
 42 43  2  0  0  0  0
 43 44  1  0  0  0  0
 44 45  2  0  0  0  0
 45 46  1  0  0  0  0
 46 47  2  0  0  0  0
 42 47  1  0  0  0  0
 44 48  1  0  0  0  0
 46 49  1  0  0  0  0
 14 42  1  0  0  0  0
 50 51  1  0  0  0  0
 50 52  1  0  0  0  0
 50 53  1  0  0  0  0
 43 50  1  0  0  0  0
 54 55  1  0  0  0  0
 54 56  1  0  0  0  0
 54 57  1  0  0  0  0
 45 54  1  0  0  0  0
 58 59  1  0  0  0  0
 58 60  1  0  0  0  0
 58 61  1  0  0  0  0
 47 58  1  0  0  0  0
  7 15  1  0  0  0  0
M  END
>  <DFT-ENERGY>
-6284.32603448

$$$$
