
  CDK     08212401083D

 67 70  0  0  0  0  0  0  0  0999 V2000
    0.9103    1.8878   -3.1424 C   0  0  0  0  0  0  0  0  0  0  0  0
   -0.0770    2.3829   -3.1463 H   0  0  0  0  0  0  0  0  0  0  0  0
    1.4931    2.2077   -4.0354 H   0  0  0  0  0  0  0  0  0  0  0  0
    1.4766    2.2454   -2.2565 H   0  0  0  0  0  0  0  0  0  0  0  0
    0.7998    0.3812   -3.1546 C   0  0  0  0  0  0  0  0  0  0  0  0
    1.7614   -0.1572   -3.2411 H   0  0  0  0  0  0  0  0  0  0  0  0
   -0.3369   -0.3438   -3.6043 C   0  0  0  0  0  0  0  0  0  0  0  0
   -1.2611    0.2322   -3.7857 H   0  0  0  0  0  0  0  0  0  0  0  0
   -0.1473   -1.6330   -4.3722 C   0  0  0  0  0  0  0  0  0  0  0  0
   -1.0724   -2.2369   -4.4332 H   0  0  0  0  0  0  0  0  0  0  0  0
    0.1556   -1.3802   -5.4113 H   0  0  0  0  0  0  0  0  0  0  0  0
    0.6592   -2.2439   -3.9205 H   0  0  0  0  0  0  0  0  0  0  0  0
   -1.2300   -1.4711   -1.7829 C   0  0  0  0  0  0  0  0  0  0  0  0
   -0.8855   -2.5109   -1.9681 H   0  0  0  0  0  0  0  0  0  0  0  0
   -2.3145   -1.2624   -1.9107 H   0  0  0  0  0  0  0  0  0  0  0  0
   -0.0662   -0.1656   -1.2353 Ru  0  0  0  0  0  0  0  0  0  0  0  0
    1.8154   -1.8688   -1.2060 Br  0  0  0  0  0  0  0  0  0  0  0  0
   -1.9851    1.4956   -1.3639 Br  0  0  0  0  0  0  0  0  0  0  0  0
    0.8776    0.7369    1.4654 N   0  0  0  0  0  0  0  0  0  0  0  0
   -0.7670   -0.7151    1.6671 N   0  0  0  0  0  0  0  0  0  0  0  0
    0.0018   -0.0377    0.7732 C   0  0  0  0  0  0  0  0  0  0  0  0
    0.8097    0.5065    2.9205 C   0  0  0  0  0  0  0  0  0  0  0  0
   -0.4830   -0.3161    3.0608 C   0  0  0  0  0  0  0  0  0  0  0  0
    0.7742    1.4696    3.4660 H   0  0  0  0  0  0  0  0  0  0  0  0
    1.7064   -0.0548    3.2592 H   0  0  0  0  0  0  0  0  0  0  0  0
   -0.3588   -1.2108    3.7010 H   0  0  0  0  0  0  0  0  0  0  0  0
   -1.3251    0.2864    3.4627 H   0  0  0  0  0  0  0  0  0  0  0  0
    1.8445    1.5971    0.8459 C   0  0  0  0  0  0  0  0  0  0  0  0
    1.4539    2.9165    0.5084 C   0  0  0  0  0  0  0  0  0  0  0  0
    2.3921    3.7346   -0.1454 C   0  0  0  0  0  0  0  0  0  0  0  0
    3.6897    3.2845   -0.4466 C   0  0  0  0  0  0  0  0  0  0  0  0
    4.0636    1.9970   -0.0238 C   0  0  0  0  0  0  0  0  0  0  0  0
    3.1696    1.1421    0.6434 C   0  0  0  0  0  0  0  0  0  0  0  0
    2.0961    4.7585   -0.4222 H   0  0  0  0  0  0  0  0  0  0  0  0
    5.0895    1.6432   -0.2101 H   0  0  0  0  0  0  0  0  0  0  0  0
    0.0859    3.4404    0.8465 C   0  0  0  0  0  0  0  0  0  0  0  0
   -0.2210    3.1524    1.8722 H   0  0  0  0  0  0  0  0  0  0  0  0
   -0.6826    3.0281    0.1559 H   0  0  0  0  0  0  0  0  0  0  0  0
    0.0617    4.5440    0.7734 H   0  0  0  0  0  0  0  0  0  0  0  0
    4.6525    4.1590   -1.2091 C   0  0  0  0  0  0  0  0  0  0  0  0
    4.4678    5.2340   -1.0170 H   0  0  0  0  0  0  0  0  0  0  0  0
    4.5444    3.9993   -2.3036 H   0  0  0  0  0  0  0  0  0  0  0  0
    5.7049    3.9331   -0.9488 H   0  0  0  0  0  0  0  0  0  0  0  0
    3.6423   -0.1811    1.1824 C   0  0  0  0  0  0  0  0  0  0  0  0
    4.5073   -0.5559    0.6043 H   0  0  0  0  0  0  0  0  0  0  0  0
    2.8527   -0.9525    1.1288 H   0  0  0  0  0  0  0  0  0  0  0  0
    3.9691   -0.0703    2.2398 H   0  0  0  0  0  0  0  0  0  0  0  0
   -1.9029   -1.5238    1.3306 C   0  0  0  0  0  0  0  0  0  0  0  0
   -3.1883   -0.9395    1.2793 C   0  0  0  0  0  0  0  0  0  0  0  0
   -4.2659   -1.7548    0.8893 C   0  0  0  0  0  0  0  0  0  0  0  0
   -4.0981   -3.1142    0.5771 C   0  0  0  0  0  0  0  0  0  0  0  0
   -2.8130   -3.6730    0.7009 C   0  0  0  0  0  0  0  0  0  0  0  0
   -1.7022   -2.9030    1.0853 C   0  0  0  0  0  0  0  0  0  0  0  0
   -5.2693   -1.3055    0.8259 H   0  0  0  0  0  0  0  0  0  0  0  0
   -2.6665   -4.7456    0.4983 H   0  0  0  0  0  0  0  0  0  0  0  0
   -3.4251    0.4969    1.6649 C   0  0  0  0  0  0  0  0  0  0  0  0
   -4.3378    0.8877    1.1779 H   0  0  0  0  0  0  0  0  0  0  0  0
   -2.5871    1.1480    1.3557 H   0  0  0  0  0  0  0  0  0  0  0  0
   -3.5679    0.5903    2.7640 H   0  0  0  0  0  0  0  0  0  0  0  0
   -5.2614   -3.9532    0.1107 C   0  0  0  0  0  0  0  0  0  0  0  0
   -5.2877   -4.0105   -0.9987 H   0  0  0  0  0  0  0  0  0  0  0  0
   -6.2295   -3.5293    0.4404 H   0  0  0  0  0  0  0  0  0  0  0  0
   -5.1905   -4.9930    0.4869 H   0  0  0  0  0  0  0  0  0  0  0  0
   -0.3425   -3.5259    1.2382 C   0  0  0  0  0  0  0  0  0  0  0  0
   -0.4007   -4.6265    1.1432 H   0  0  0  0  0  0  0  0  0  0  0  0
    0.1017   -3.2894    2.2273 H   0  0  0  0  0  0  0  0  0  0  0  0
    0.3693   -3.1433    0.4746 H   0  0  0  0  0  0  0  0  0  0  0  0
  1  2  1  0  0  0  0
  1  5  1  0  0  0  0
  3  1  1  0  0  0  0
  4  1  1  0  0  0  0
  5  6  1  0  0  0  0
  5 16  1  0  0  0  0
  5  7  1  0  0  0  0
  7  9  1  0  0  0  0
  7  8  1  0  0  0  0
  9 10  1  0  0  0  0
 11  9  1  0  0  0  0
 12  9  1  0  0  0  0
 13 14  1  0  0  0  0
 13 15  1  0  0  0  0
 13  7  1  0  0  0  0
 16 13  1  0  0  0  0
 16 17  1  0  0  0  0
 16 18  1  0  0  0  0
 19 21  1  0  0  0  0
 20 21  1  0  0  0  0
 19 22  1  0  0  0  0
 22 23  1  0  0  0  0
 20 23  1  0  0  0  0
 22 24  1  0  0  0  0
 22 25  1  0  0  0  0
 23 26  1  0  0  0  0
 23 27  1  0  0  0  0
 28 29  2  0  0  0  0
 29 30  1  0  0  0  0
 30 31  2  0  0  0  0
 31 32  1  0  0  0  0
 32 33  2  0  0  0  0
 28 33  1  0  0  0  0
 30 34  1  0  0  0  0
 32 35  1  0  0  0  0
 19 28  1  0  0  0  0
 36 37  1  0  0  0  0
 36 38  1  0  0  0  0
 36 39  1  0  0  0  0
 29 36  1  0  0  0  0
 40 41  1  0  0  0  0
 40 42  1  0  0  0  0
 40 43  1  0  0  0  0
 31 40  1  0  0  0  0
 44 45  1  0  0  0  0
 44 46  1  0  0  0  0
 44 47  1  0  0  0  0
 33 44  1  0  0  0  0
 48 49  2  0  0  0  0
 49 50  1  0  0  0  0
 50 51  2  0  0  0  0
 51 52  1  0  0  0  0
 52 53  2  0  0  0  0
 48 53  1  0  0  0  0
 50 54  1  0  0  0  0
 52 55  1  0  0  0  0
 20 48  1  0  0  0  0
 56 57  1  0  0  0  0
 56 58  1  0  0  0  0
 56 59  1  0  0  0  0
 49 56  1  0  0  0  0
 60 61  1  0  0  0  0
 60 62  1  0  0  0  0
 60 63  1  0  0  0  0
 51 60  1  0  0  0  0
 64 65  1  0  0  0  0
 64 66  1  0  0  0  0
 64 67  1  0  0  0  0
 53 64  1  0  0  0  0
 16 21  1  0  0  0  0
M  END
>  <DFT-ENERGY>
-6362.87760216

$$$$
