SIMesBr-0_A1
  CDK     08162410273D

 75 79  0  0  0  0  0  0  0  0999 V2000
   -0.7029    0.6545   -0.6073 Ru  0  0  0  0  0  0  0  0  0  0  0  0
   -2.4807    2.0437   -0.6073 O   0  0  0  0  0  0  0  0  0  0  0  0
   -1.9131   -0.3496    0.3260 C   0  0  0  0  0  0  0  0  0  0  0  0
   -1.6803   -1.3723    0.6189 H   0  0  0  0  0  0  0  0  0  0  0  0
   -2.7162    3.2695   -1.3825 C   0  0  0  0  0  0  0  0  0  0  0  0
   -3.0975    4.0346   -0.6729 H   0  0  0  0  0  0  0  0  0  0  0  0
   -1.2976    3.5611   -1.8510 C   0  0  0  0  0  0  0  0  0  0  0  0
   -1.2220    4.5280   -2.3554 H   0  0  0  0  0  0  0  0  0  0  0  0
   -0.9339    2.7832   -2.5529 H   0  0  0  0  0  0  0  0  0  0  0  0
   -0.5925    3.5637   -0.9942 H   0  0  0  0  0  0  0  0  0  0  0  0
   -3.6848    2.9568   -2.5077 C   0  0  0  0  0  0  0  0  0  0  0  0
   -4.7145    2.8253   -2.1593 H   0  0  0  0  0  0  0  0  0  0  0  0
   -3.3979    2.0128   -3.0098 H   0  0  0  0  0  0  0  0  0  0  0  0
   -3.6822    3.7400   -3.2735 H   0  0  0  0  0  0  0  0  0  0  0  0
   -3.4729    1.5386    0.1910 C   0  0  0  0  0  0  0  0  0  0  0  0
   -4.6421    2.1916    0.5397 C   0  0  0  0  0  0  0  0  0  0  0  0
   -4.8606    3.1987    0.1910 H   0  0  0  0  0  0  0  0  0  0  0  0
   -5.5433    1.5341    1.3708 C   0  0  0  0  0  0  0  0  0  0  0  0
   -6.4665    2.0434    1.6588 H   0  0  0  0  0  0  0  0  0  0  0  0
   -5.2933    0.2488    1.8425 C   0  0  0  0  0  0  0  0  0  0  0  0
   -6.0180   -0.2454    2.4879 H   0  0  0  0  0  0  0  0  0  0  0  0
   -4.1236   -0.3928    1.4822 C   0  0  0  0  0  0  0  0  0  0  0  0
   -3.9303   -1.4041    1.8368 H   0  0  0  0  0  0  0  0  0  0  0  0
   -3.1880    0.2466    0.6667 C   0  0  0  0  0  0  0  0  0  0  0  0
   -1.4098   -0.1749   -2.8570 Br  0  0  0  0  0  0  0  0  0  0  0  0
    0.1389    1.9272    1.3622 Br  0  0  0  0  0  0  0  0  0  0  0  0
    2.0736   -0.0535   -1.2746 N   0  0  0  0  0  0  0  0  0  0  0  0
    1.2344   -1.7065   -0.0417 N   0  0  0  0  0  0  0  0  0  0  0  0
    0.9242   -0.4819   -0.6114 C   0  0  0  0  0  0  0  0  0  0  0  0
    3.2337   -1.0050   -1.1501 C   0  0  0  0  0  0  0  0  0  0  0  0
    2.6538   -2.1488   -0.2997 C   0  0  0  0  0  0  0  0  0  0  0  0
    4.0916   -0.4994   -0.6631 H   0  0  0  0  0  0  0  0  0  0  0  0
    3.5631   -1.3397   -2.1541 H   0  0  0  0  0  0  0  0  0  0  0  0
    2.6589   -3.1222   -0.8291 H   0  0  0  0  0  0  0  0  0  0  0  0
    3.1906   -2.2830    0.6606 H   0  0  0  0  0  0  0  0  0  0  0  0
    2.2869    1.1473   -2.0453 C   0  0  0  0  0  0  0  0  0  0  0  0
    2.8173    2.3038   -1.4211 C   0  0  0  0  0  0  0  0  0  0  0  0
    3.0454    3.4515   -2.1937 C   0  0  0  0  0  0  0  0  0  0  0  0
    2.7881    3.4573   -3.5704 C   0  0  0  0  0  0  0  0  0  0  0  0
    2.3208    2.2913   -4.1899 C   0  0  0  0  0  0  0  0  0  0  0  0
    2.0813    1.1262   -3.4481 C   0  0  0  0  0  0  0  0  0  0  0  0
    3.4336    4.3470   -1.7125 H   0  0  0  0  0  0  0  0  0  0  0  0
    2.1437    2.2833   -5.2636 H   0  0  0  0  0  0  0  0  0  0  0  0
    3.1848    2.3434    0.0239 C   0  0  0  0  0  0  0  0  0  0  0  0
    2.8910    1.4405    0.5795 H   0  0  0  0  0  0  0  0  0  0  0  0
    2.6836    3.1817    0.5389 H   0  0  0  0  0  0  0  0  0  0  0  0
    4.2660    2.4801    0.1561 H   0  0  0  0  0  0  0  0  0  0  0  0
    3.0437    4.6886   -4.3774 C   0  0  0  0  0  0  0  0  0  0  0  0
    2.8773    5.6076   -3.7991 H   0  0  0  0  0  0  0  0  0  0  0  0
    2.4010    4.7473   -5.2662 H   0  0  0  0  0  0  0  0  0  0  0  0
    4.0861    4.7119   -4.7294 H   0  0  0  0  0  0  0  0  0  0  0  0
    1.6605   -0.1037   -4.1806 C   0  0  0  0  0  0  0  0  0  0  0  0
    0.8006    0.1002   -4.8416 H   0  0  0  0  0  0  0  0  0  0  0  0
    1.3338   -0.9195   -3.5186 H   0  0  0  0  0  0  0  0  0  0  0  0
    2.4740   -0.4869   -4.8104 H   0  0  0  0  0  0  0  0  0  0  0  0
    0.4224   -2.6042    0.7399 C   0  0  0  0  0  0  0  0  0  0  0  0
    0.4521   -2.5313    2.1530 C   0  0  0  0  0  0  0  0  0  0  0  0
   -0.2636   -3.4799    2.8963 C   0  0  0  0  0  0  0  0  0  0  0  0
   -1.0014   -4.4849    2.2586 C   0  0  0  0  0  0  0  0  0  0  0  0
   -1.0416   -4.5360    0.8569 C   0  0  0  0  0  0  0  0  0  0  0  0
   -0.3391   -3.6046    0.0848 C   0  0  0  0  0  0  0  0  0  0  0  0
   -0.2437   -3.4302    3.9833 H   0  0  0  0  0  0  0  0  0  0  0  0
   -1.6266   -5.3095    0.3634 H   0  0  0  0  0  0  0  0  0  0  0  0
    1.2146   -1.4582    2.8506 C   0  0  0  0  0  0  0  0  0  0  0  0
    0.8928   -0.4554    2.4999 H   0  0  0  0  0  0  0  0  0  0  0  0
    2.2930   -1.5254    2.6581 H   0  0  0  0  0  0  0  0  0  0  0  0
    1.0734   -1.4666    3.9387 H   0  0  0  0  0  0  0  0  0  0  0  0
   -1.7529   -5.4992    3.0572 C   0  0  0  0  0  0  0  0  0  0  0  0
   -2.8349   -5.4281    2.8722 H   0  0  0  0  0  0  0  0  0  0  0  0
   -1.6036   -5.3875    4.1393 H   0  0  0  0  0  0  0  0  0  0  0  0
   -1.4471   -6.5224    2.7940 H   0  0  0  0  0  0  0  0  0  0  0  0
   -0.4136   -3.6539   -1.4029 C   0  0  0  0  0  0  0  0  0  0  0  0
   -1.1131   -4.4131   -1.7746 H   0  0  0  0  0  0  0  0  0  0  0  0
    0.5648   -3.8574   -1.8574 H   0  0  0  0  0  0  0  0  0  0  0  0
   -0.7560   -2.6812   -1.8137 H   0  0  0  0  0  0  0  0  0  0  0  0
  1  2  1  0  0  0  0
  1  3  2  0  0  0  0
  3  4  1  0  0  0  0
  2  5  1  0  0  0  0
  5  6  1  0  0  0  0
  5  7  1  0  0  0  0
  7  8  1  0  0  0  0
  7  9  1  0  0  0  0
  7 10  1  0  0  0  0
  5 11  1  0  0  0  0
 11 12  1  0  0  0  0
 11 13  1  0  0  0  0
 11 14  1  0  0  0  0
  2 15  1  0  0  0  0
 15 24  1  0  0  0  0
 15 16  2  0  0  0  0
 16 17  1  0  0  0  0
 16 18  1  0  0  0  0
 18 19  1  0  0  0  0
 18 20  2  0  0  0  0
 20 21  1  0  0  0  0
 20 22  1  0  0  0  0
 22 24  2  0  0  0  0
 22 23  1  0  0  0  0
  3 24  1  0  0  0  0
  1 25  1  0  0  0  0
  1 26  1  0  0  0  0
 27 29  1  0  0  0  0
 28 29  1  0  0  0  0
 27 30  1  0  0  0  0
 30 31  1  0  0  0  0
 28 31  1  0  0  0  0
 30 32  1  0  0  0  0
 30 33  1  0  0  0  0
 31 34  1  0  0  0  0
 31 35  1  0  0  0  0
  1 29  1  0  0  0  0
 36 37  2  0  0  0  0
 37 38  1  0  0  0  0
 38 39  2  0  0  0  0
 39 40  1  0  0  0  0
 40 41  2  0  0  0  0
 36 41  1  0  0  0  0
 38 42  1  0  0  0  0
 40 43  1  0  0  0  0
 27 36  1  0  0  0  0
 44 45  1  0  0  0  0
 44 46  1  0  0  0  0
 44 47  1  0  0  0  0
 37 44  1  0  0  0  0
 48 49  1  0  0  0  0
 48 50  1  0  0  0  0
 48 51  1  0  0  0  0
 39 48  1  0  0  0  0
 52 53  1  0  0  0  0
 52 54  1  0  0  0  0
 52 55  1  0  0  0  0
 41 52  1  0  0  0  0
 56 57  2  0  0  0  0
 57 58  1  0  0  0  0
 58 59  2  0  0  0  0
 59 60  1  0  0  0  0
 60 61  2  0  0  0  0
 56 61  1  0  0  0  0
 58 62  1  0  0  0  0
 60 63  1  0  0  0  0
 28 56  1  0  0  0  0
 64 65  1  0  0  0  0
 64 66  1  0  0  0  0
 64 67  1  0  0  0  0
 57 64  1  0  0  0  0
 68 69  1  0  0  0  0
 68 70  1  0  0  0  0
 68 71  1  0  0  0  0
 59 68  1  0  0  0  0
 72 73  1  0  0  0  0
 72 74  1  0  0  0  0
 72 75  1  0  0  0  0
 61 72  1  0  0  0  0
M  END
> <FrozenCore-PM6_ENERGY>
59.178

> <RMSD_CONF_CG-CS>
1.065317

> <RMSD_CONF_GO-CS>
0.000000

> <UID>


> <hartree_to_kcalmol>
627.49467516

> <boltzmann_constant>
0.0000000000000000000000138066

> <avogadro_number>
602214000000000000000000

> <jmol_to_kcalmol>
0.00023901

> <temp>
313.15

> <kT>
.6223089948281258706000000000

> <G_Propene>
-117.738020895

> <G_Ethene>
-78.4716324751

> <G_HoveydaProd>
-502.204109499

> <G_SIMes>
-924.27249048

> <G_PCy3>
-1046.11440274

> <G_HG_RuCl2_SIMes>
-2402.13728523

> <G_HI_precursor>
-2523.95659027

> <DG_referenceProductionBarrier>
0.0222714248

> <DDG_reference_HGII>
0.0222312922

> <DG_referenceProductionBarrier>
0.0222714248

> <DG_referencePrecursorStabilityHII>
-0.0052201621

> <DG_referencePrecursorStabilityHI>
0.0117775312

> <DDG_referencePrecursorStability>
.0169976933

> <magnitude3>
4.29872427

> <magnitude2>
2.86581618

> <magnitude1>
1.43290809

> <magnitude4>
5.73163236

> <freeEnergyX>
-6362.87760206

> <freeEnergyZ>
-6284.32603414

> <freeEnergyD>
-6284.36876522

> <freeEnergyA>
-6629.60238111

> <freeEnergyC>
-6284.34681761

> <freeEnergyE>
-2402.13799993

> <freeEnergyF>
-6629.58836385

> <freeEnergyL>
-924.272550507

> <DESCRIPTOR_1>
.03115192701733457539

> <DESCRIPTOR_DEFINITION_1>
desc1=( echo "1 * ( e( $hartree_to_kcalmol * ( ( $freeEnergyZ - $freeEnergyD ) - ( $freeEnergyX + 2*$G_Ethene - $freeEnergyD - 2*$G_Propene ) - $DDG_reference_HGII ) / $kT ) ) " | bc -l )

> <DESCRIPTOR_2>
11.791302766004507832

> <DESCRIPTOR_DEFINITION_2>
desc2=$( echo "1 * ( $hartree_to_kcalmol * ( ( $freeEnergyZ - $freeEnergyD ) - ( $freeEnergyX + 2*$G_Ethene - $freeEnergyD - 2*$G_Propene ) ) )" | bc -l )

> <DESCRIPTOR_3>
0.0000000001

> <DESCRIPTOR_DEFINITION_3>
desc3=$( echo "1 * $hartree_to_kcalmol * ( $DG_referenceProductionBarrier - ( $freeEnergyX + 2*$G_Ethene - $freeEnergyD - 2*$G_Propene ) )" | bc -l )

> <WEIGHT_1>
.99946236258877737166

> <WEIGHT_DEFINITION_1>
w1=$( echo "1 / ( 1 + e( $hartree_to_kcalmol * ( ( ( $freeEnergyX + 2*$G_Ethene - $freeEnergyD - 2*$G_Propene ) ) - ( $DG_referenceProductionBarrier + $magnitude4 ) ) / $kT ) )" | bc -l )

> <WEIGHT_2>
.99999999617040716872

> <WEIGHT_DEFINITION_2>
w2=$( echo "1 / ( 1 + e( $hartree_to_kcalmol * ( ABS( $freeEnergyC + $G_HoveydaProd - $freeEnergyA - 2*${G_Ethene} - $DG_referencePrecursorStabilityHII ) - ( $DDG_referencePrecursorStability + $magnitude1 ) ) / $kT ) )" | bc -l )

> <WEIGHT_3>
.99999999999349402729

> <WEIGHT_DEFINITION_3>
w3=$( echo "1 / ( 1 + e( $hartree_to_kcalmol * ( ( $freeEnergyE + $G_PCy3 - $G_HI_precursor - $freeEnergyL ) - $magnitude1 ) / $kT ) )" | bc -l )

> <WEIGHT_4>
.99992728801197268827

> <WEIGHT_DEFINITION_4>
w4=$( echo "1 / ( 1 + e( $hartree_to_kcalmol * ( - ( $freeEnergyF - $freeEnergyA ) + $magnitude2 ) / $kT ) )" | bc -l )

> <CALCULATION_OF_OVERALL_FITNESS>
fitness=$( echo "( $desc1 + $desc2 + $desc3 ) * $w1 * $w2 * $w3 * $w4 " | bc -l )

> <FITNESS>
11.81523928184930774258

$$$$
