orthoTolyl-5_A2
  CDK     08122417533D

 63 67  0  0  0  0  0  0  0  0999 V2000
    0.4369   -0.3573   -0.2583 Ru  0  0  0  0  0  0  0  0  0  0  0  0
    2.2147   -0.3573   -1.6475 O   0  0  0  0  0  0  0  0  0  0  0  0
    1.6471    0.5760    0.7458 C   0  0  0  0  0  0  0  0  0  0  0  0
    1.4143    0.8689    1.7685 H   0  0  0  0  0  0  0  0  0  0  0  0
    2.4502   -1.1325   -2.8733 C   0  0  0  0  0  0  0  0  0  0  0  0
    2.8591   -0.4321   -3.6318 H   0  0  0  0  0  0  0  0  0  0  0  0
    1.0290   -1.5746   -3.1883 C   0  0  0  0  0  0  0  0  0  0  0  0
    0.9571   -2.0701   -4.1596 H   0  0  0  0  0  0  0  0  0  0  0  0
    0.6465   -2.2748   -2.4176 H   0  0  0  0  0  0  0  0  0  0  0  0
    0.3387   -0.7052   -3.1930 H   0  0  0  0  0  0  0  0  0  0  0  0
    3.3891   -2.2774   -2.5388 C   0  0  0  0  0  0  0  0  0  0  0  0
    3.3820   -3.0512   -3.3129 H   0  0  0  0  0  0  0  0  0  0  0  0
    4.4230   -1.9496   -2.3909 H   0  0  0  0  0  0  0  0  0  0  0  0
    3.0712   -2.7606   -1.5927 H   0  0  0  0  0  0  0  0  0  0  0  0
    3.2069    0.4411   -1.1425 C   0  0  0  0  0  0  0  0  0  0  0  0
    4.3760    0.7898   -1.7955 C   0  0  0  0  0  0  0  0  0  0  0  0
    4.5954    0.4386   -2.8012 H   0  0  0  0  0  0  0  0  0  0  0  0
    5.2772    1.6209   -1.1380 C   0  0  0  0  0  0  0  0  0  0  0  0
    6.2001    1.9082   -1.6467 H   0  0  0  0  0  0  0  0  0  0  0  0
    5.0272    2.0925    0.1473 C   0  0  0  0  0  0  0  0  0  0  0  0
    5.7524    2.7366    0.6419 H   0  0  0  0  0  0  0  0  0  0  0  0
    3.8575    1.7322    0.7889 C   0  0  0  0  0  0  0  0  0  0  0  0
    3.6643    2.0868    1.8002 H   0  0  0  0  0  0  0  0  0  0  0  0
    2.9220    0.9168    0.1495 C   0  0  0  0  0  0  0  0  0  0  0  0
    1.0492   -2.5954    0.3138 Cl  0  0  0  0  0  0  0  0  0  0  0  0
   -0.3847    1.3455   -1.6150 Cl  0  0  0  0  0  0  0  0  0  0  0  0
   -1.1672   -0.3096    0.8676 C   0  0  0  0  0  0  0  0  0  0  0  0
   -1.4921    0.1429    2.1432 N   0  0  0  0  0  0  0  0  0  0  0  0
   -2.9165   -0.1509    2.5428 C   0  0  0  0  0  0  0  0  0  0  0  0
   -3.5156   -0.8075    1.2842 C   0  0  0  0  0  0  0  0  0  0  0  0
   -2.3488   -0.8483    0.3395 N   0  0  0  0  0  0  0  0  0  0  0  0
   -2.9332   -0.8270    3.4213 H   0  0  0  0  0  0  0  0  0  0  0  0
   -4.3464   -0.2131    0.8435 H   0  0  0  0  0  0  0  0  0  0  0  0
   -2.5335   -1.4112   -0.9768 C   0  0  0  0  0  0  0  0  0  0  0  0
   -2.9697   -2.6397   -3.4471 C   0  0  0  0  0  0  0  0  0  0  0  0
   -3.3562   -0.7676   -1.9350 C   0  0  0  0  0  0  0  0  0  0  0  0
   -1.9200   -2.6410   -1.2665 C   0  0  0  0  0  0  0  0  0  0  0  0
   -2.1384   -3.2505   -2.5043 C   0  0  0  0  0  0  0  0  0  0  0  0
   -3.5677   -1.4087   -3.1650 C   0  0  0  0  0  0  0  0  0  0  0  0
   -1.6624   -4.2046   -2.7260 H   0  0  0  0  0  0  0  0  0  0  0  0
   -4.1991   -0.9334   -3.9149 H   0  0  0  0  0  0  0  0  0  0  0  0
   -0.6848    0.8506    3.1056 C   0  0  0  0  0  0  0  0  0  0  0  0
    0.7354    2.2149    5.0818 C   0  0  0  0  0  0  0  0  0  0  0  0
   -0.2254    0.1600    4.2388 C   0  0  0  0  0  0  0  0  0  0  0  0
   -0.4233    2.2331    2.9393 C   0  0  0  0  0  0  0  0  0  0  0  0
    0.2904    2.8983    3.9475 C   0  0  0  0  0  0  0  0  0  0  0  0
    0.4848    0.8469    5.2253 C   0  0  0  0  0  0  0  0  0  0  0  0
    0.4991    3.9629    3.8428 H   0  0  0  0  0  0  0  0  0  0  0  0
    0.8452    0.3135    6.1037 H   0  0  0  0  0  0  0  0  0  0  0  0
   -0.8683    2.9546    1.7147 C   0  0  0  0  0  0  0  0  0  0  0  0
   -0.5470    4.0030    1.6879 H   0  0  0  0  0  0  0  0  0  0  0  0
   -1.9616    2.9418    1.6043 H   0  0  0  0  0  0  0  0  0  0  0  0
   -0.4595    2.4755    0.7974 H   0  0  0  0  0  0  0  0  0  0  0  0
   -3.9565    0.5719   -1.6731 C   0  0  0  0  0  0  0  0  0  0  0  0
   -3.1499    1.3268   -1.5766 H   0  0  0  0  0  0  0  0  0  0  0  0
   -4.5354    0.5946   -0.7383 H   0  0  0  0  0  0  0  0  0  0  0  0
   -4.6150    0.9120   -2.4814 H   0  0  0  0  0  0  0  0  0  0  0  0
   -3.8903   -1.8333    1.4745 H   0  0  0  0  0  0  0  0  0  0  0  0
   -3.4355    0.7873    2.8226 H   0  0  0  0  0  0  0  0  0  0  0  0
   -0.4132   -0.9096    4.3391 H   0  0  0  0  0  0  0  0  0  0  0  0
    1.2841    2.7508    5.8557 H   0  0  0  0  0  0  0  0  0  0  0  0
   -3.1495   -3.1209   -4.4075 H   0  0  0  0  0  0  0  0  0  0  0  0
   -1.2761   -3.1218   -0.5190 H   0  0  0  0  0  0  0  0  0  0  0  0
  2  1  1  0  0  0  0
  3  1  2  0  0  0  0
  4  3  1  0  0  0  0
  5  2  1  0  0  0  0
  6  5  1  0  0  0  0
  7  5  1  0  0  0  0
  8  7  1  0  0  0  0
  9  7  1  0  0  0  0
 10  7  1  0  0  0  0
 11  5  1  0  0  0  0
 12 11  1  0  0  0  0
 13 11  1  0  0  0  0
 14 11  1  0  0  0  0
 15  2  1  0  0  0  0
 15 24  1  0  0  0  0
 16 15  2  0  0  0  0
 17 16  1  0  0  0  0
 18 16  1  0  0  0  0
 19 18  1  0  0  0  0
 20 18  2  0  0  0  0
 21 20  1  0  0  0  0
 22 20  1  0  0  0  0
 22 24  2  0  0  0  0
 23 22  1  0  0  0  0
 24  3  1  0  0  0  0
  1 25  1  0  0  0  0
  1 26  1  0  0  0  0
 27 28  1  0  0  0  0
 27 31  1  0  0  0  0
 28 29  1  0  0  0  0
 28 42  1  0  0  0  0
 29 32  1  0  0  0  0
 29 30  1  0  0  0  0
 29 59  1  0  0  0  0
 30 33  1  0  0  0  0
 30 31  1  0  0  0  0
 30 58  1  0  0  0  0
 31 34  1  0  0  0  0
 34 37  2  0  0  0  0
 34 36  1  0  0  0  0
 35 38  2  0  0  0  0
 35 39  1  0  0  0  0
 35 62  1  0  0  0  0
 36 39  2  0  0  0  0
 36 54  1  0  0  0  0
 37 38  1  0  0  0  0
 37 63  1  0  0  0  0
 38 40  1  0  0  0  0
 39 41  1  0  0  0  0
 42 45  2  0  0  0  0
 42 44  1  0  0  0  0
 43 46  2  0  0  0  0
 43 47  1  0  0  0  0
 43 61  1  0  0  0  0
 44 47  2  0  0  0  0
 44 60  1  0  0  0  0
 45 46  1  0  0  0  0
 45 50  1  0  0  0  0
 46 48  1  0  0  0  0
 47 49  1  0  0  0  0
 50 51  1  0  0  0  0
 50 52  1  0  0  0  0
 50 53  1  0  0  0  0
 54 55  1  0  0  0  0
 54 56  1  0  0  0  0
 54 57  1  0  0  0  0
  1 27  1  0  0  0  0
M  END
> <FrozenCore-PM6_ENERGY>
161.432

> <RMSD_CONF_CG-CS>
0.453039

> <RMSD_CONF_GO-CS>
0.000000

> <UID>


> <DESCRIPTOR_DEFINITION_1>
desc1=( echo "1 * ( e( $hartree_to_kcalmol * ( ( $freeEnergyZ - $freeEnergyD ) - ( $freeEnergyX + 2*$G_Ethene - $freeEnergyD - 2*$G_Propene ) - $DDG_reference_HGII ) / $kT ) ) " | bc -l )

> <DESCRIPTOR_DEFINITION_2>
desc1=( echo "1 * ( e( $hartree_to_kcalmol * ( ( $freeEnergyZ - $freeEnergyD ) - ( $freeEnergyX + 2*$G_Ethene - $freeEnergyD - 2*$G_Propene ) - $DDG_reference_HGII ) / $kT ) ) " | bc -l )

> <DESCRIPTOR_DEFINITION_3>
desc1=( echo "1 * ( e( $hartree_to_kcalmol * ( ( $freeEnergyZ - $freeEnergyD ) - ( $freeEnergyX + 2*$G_Ethene - $freeEnergyD - 2*$G_Propene ) - $DDG_reference_HGII ) / $kT ) ) " | bc -l )

> <WEIGHT_DEFINITION_1>
w1=$( echo "1 / ( 1 + e( $hartree_to_kcalmol * ( ( ( $freeEnergyX + 2*$G_Ethene - $freeEnergyD - 2*$G_Propene ) ) - ( $DG_referenceProductionBarrier + $magnitude4 ) ) / $kT ) )" | bc -l )

> <WEIGHT_DEFINITION_2>
w1=$( echo "1 / ( 1 + e( $hartree_to_kcalmol * ( ( ( $freeEnergyX + 2*$G_Ethene - $freeEnergyD - 2*$G_Propene ) ) - ( $DG_referenceProductionBarrier + $magnitude4 ) ) / $kT ) )" | bc -l )

> <WEIGHT_DEFINITION_3>
w1=$( echo "1 / ( 1 + e( $hartree_to_kcalmol * ( ( ( $freeEnergyX + 2*$G_Ethene - $freeEnergyD - 2*$G_Propene ) ) - ( $DG_referenceProductionBarrier + $magnitude4 ) ) / $kT ) )" | bc -l )

> <WEIGHT_DEFINITION_4>
w1=$( echo "1 / ( 1 + e( $hartree_to_kcalmol * ( ( ( $freeEnergyX + 2*$G_Ethene - $freeEnergyD - 2*$G_Propene ) ) - ( $DG_referenceProductionBarrier + $magnitude4 ) ) / $kT ) )" | bc -l )

> <CALCULATION_OF_OVERALL_FITNESS>
fitness=$( echo "( $desc1 + $desc2 + $desc3 ) * ( $w1 * $w2 * $w3 * $w4 )" | bc -l )

> <freeEnergyA>
-2245.07717283

> <freeEnergyF>
-2245.05482418

> <freeEnergyE>
-2245.07717283

> <freeEnergyC>
-1899.8222393

> <freeEnergyL>
-767.216900015

> <freeEnergyX>
-1978.35164422

> <freeEnergyZ>
-1899.80259449

> <freeEnergyD>
-1899.84173973

> <G_Propene>
-117.738020895

> <G_Ethene>
-78.4716324751

> <G_HoveydaProd>
-502.204109499

> <G_SIMes>
-924.27249048

> <G_HG_RuCl2_SIMes>
-2402.13728523

> <DG_referenceProductionBarrier>
0.01468968

> <DG_referencePrecursorStabilityHII>
-0.0052201621

> <DG_referencePrecursorStabilityHI>
0.0117775312

> <DDG_referencePrecursorStability>
.0169976933

> <DG_referenceSynt>
0.0226072217

> <hartree_to_kcalmol>
627.49467516

> <boltzmann_constant>
0.0000000000000000000000138066

> <avogadro_number>
602214000000000000000000

> <jmol_to_kcalmol>
0.00023901

> <temp>
313.15

> <kT>
.6223089948281258706000000000

> <magnitude1>
1.43290809

> <magnitude2>
2.86581618

> <magnitude3>
4.29872427

> <magnitude4>
5.73163236

> <DFT_IDENTIFIER>
1723550806632

> <DFT_MACHINE>
158.39.114.73

> <XTB_IDENTIFIER>
NREC

> <XTB_MACHINE>
NREC

> <DESCRIPTOR_1>
.00245887053305926069

> <DESCRIPTOR_2>
10.211151949963347432

> <DESCRIPTOR_3>
0.0000000001

> <WEIGHT_1>
.99981672419062875839

> <WEIGHT_2>
.99999999277188702347

> <WEIGHT_3>
.99999999879713061444

> <WEIGHT_4>
.99999998366158559135

> <FITNESS>
10.21173865986804765981

$$$$
