
  CDK     08132402573D

 55 58  0  0  0  0  0  0  0  0999 V2000
   -0.7528   -3.0774   -1.9169 C   0  0  0  0  0  0  0  0  0  0  0  0
    0.2916   -3.0989   -2.2751 H   0  0  0  0  0  0  0  0  0  0  0  0
   -1.2853   -3.9891   -2.2696 H   0  0  0  0  0  0  0  0  0  0  0  0
   -1.2610   -2.2110   -2.3846 H   0  0  0  0  0  0  0  0  0  0  0  0
   -0.8309   -3.0250   -0.4096 C   0  0  0  0  0  0  0  0  0  0  0  0
   -1.8489   -3.0590    0.0234 H   0  0  0  0  0  0  0  0  0  0  0  0
    0.1975   -3.5086    0.4432 C   0  0  0  0  0  0  0  0  0  0  0  0
    1.1638   -3.7400   -0.0387 H   0  0  0  0  0  0  0  0  0  0  0  0
   -0.1477   -4.2380    1.7209 C   0  0  0  0  0  0  0  0  0  0  0  0
    0.7193   -4.3462    2.3994 H   0  0  0  0  0  0  0  0  0  0  0  0
   -0.4998   -5.2595    1.4602 H   0  0  0  0  0  0  0  0  0  0  0  0
   -0.9667   -3.7165    2.2549 H   0  0  0  0  0  0  0  0  0  0  0  0
    1.1371   -1.7069    1.5643 C   0  0  0  0  0  0  0  0  0  0  0  0
    0.8093   -1.8930    2.6092 H   0  0  0  0  0  0  0  0  0  0  0  0
    2.2147   -1.8469    1.3260 H   0  0  0  0  0  0  0  0  0  0  0  0
   -0.0378   -1.1197    0.2881 Ru  0  0  0  0  0  0  0  0  0  0  0  0
   -1.8316   -1.1011    1.9017 Cl  0  0  0  0  0  0  0  0  0  0  0  0
    1.7637   -1.0586   -1.3140 Cl  0  0  0  0  0  0  0  0  0  0  0  0
   -0.0772    0.8588    0.2115 C   0  0  0  0  0  0  0  0  0  0  0  0
    0.5915    1.7517    0.9758 N   0  0  0  0  0  0  0  0  0  0  0  0
    0.1998    3.1407    0.6623 C   0  0  0  0  0  0  0  0  0  0  0  0
   -0.5576    2.9847   -0.6727 C   0  0  0  0  0  0  0  0  0  0  0  0
   -0.7907    1.5302   -0.7247 N   0  0  0  0  0  0  0  0  0  0  0  0
   -0.4467    3.5390    1.4742 H   0  0  0  0  0  0  0  0  0  0  0  0
    0.0565    3.3137   -1.5372 H   0  0  0  0  0  0  0  0  0  0  0  0
   -1.5945    0.8382   -1.6853 C   0  0  0  0  0  0  0  0  0  0  0  0
   -3.2182   -0.5552   -3.4828 C   0  0  0  0  0  0  0  0  0  0  0  0
   -1.2086    0.7869   -3.0474 C   0  0  0  0  0  0  0  0  0  0  0  0
   -2.7494    0.1801   -1.2224 C   0  0  0  0  0  0  0  0  0  0  0  0
   -3.5600   -0.5247   -2.1237 C   0  0  0  0  0  0  0  0  0  0  0  0
   -2.0545    0.0896   -3.9301 C   0  0  0  0  0  0  0  0  0  0  0  0
   -4.4573   -1.0436   -1.7584 H   0  0  0  0  0  0  0  0  0  0  0  0
   -1.7721    0.0319   -4.9921 H   0  0  0  0  0  0  0  0  0  0  0  0
    1.3436    1.4115    2.1452 C   0  0  0  0  0  0  0  0  0  0  0  0
    2.7924    0.7352    4.4270 C   0  0  0  0  0  0  0  0  0  0  0  0
    0.6627    1.1118    3.3354 C   0  0  0  0  0  0  0  0  0  0  0  0
    2.7534    1.3649    2.0583 C   0  0  0  0  0  0  0  0  0  0  0  0
    3.4601    1.0249    3.2278 C   0  0  0  0  0  0  0  0  0  0  0  0
    1.3908    0.7715    4.4832 C   0  0  0  0  0  0  0  0  0  0  0  0
    4.5587    0.9752    3.1865 H   0  0  0  0  0  0  0  0  0  0  0  0
    0.8621    0.5247    5.4146 H   0  0  0  0  0  0  0  0  0  0  0  0
    3.4500    1.6031    0.7465 C   0  0  0  0  0  0  0  0  0  0  0  0
    4.5479    1.5328    0.8616 H   0  0  0  0  0  0  0  0  0  0  0  0
    3.2154    2.6045    0.3285 H   0  0  0  0  0  0  0  0  0  0  0  0
    3.1199    0.8536   -0.0067 H   0  0  0  0  0  0  0  0  0  0  0  0
    0.0879    1.3871   -3.5167 C   0  0  0  0  0  0  0  0  0  0  0  0
    0.9147    1.0635   -2.8497 H   0  0  0  0  0  0  0  0  0  0  0  0
    0.0585    2.4975   -3.5266 H   0  0  0  0  0  0  0  0  0  0  0  0
    0.3229    1.0543   -4.5449 H   0  0  0  0  0  0  0  0  0  0  0  0
   -1.5173    3.5361   -0.6918 H   0  0  0  0  0  0  0  0  0  0  0  0
    1.0909    3.7924    0.5765 H   0  0  0  0  0  0  0  0  0  0  0  0
   -0.4361    1.1005    3.3298 H   0  0  0  0  0  0  0  0  0  0  0  0
    3.3729    0.4688    5.3224 H   0  0  0  0  0  0  0  0  0  0  0  0
   -3.8499   -1.0985   -4.2006 H   0  0  0  0  0  0  0  0  0  0  0  0
   -2.9853    0.2132   -0.1492 H   0  0  0  0  0  0  0  0  0  0  0  0
  1  2  1  0  0  0  0
  1  5  1  0  0  0  0
  3  1  1  0  0  0  0
  4  1  1  0  0  0  0
  5  6  1  0  0  0  0
  5 16  1  0  0  0  0
  5  7  1  0  0  0  0
  7  9  1  0  0  0  0
  7  8  1  0  0  0  0
  9 10  1  0  0  0  0
 11  9  1  0  0  0  0
 12  9  1  0  0  0  0
 13 14  1  0  0  0  0
 13 15  1  0  0  0  0
 13  7  1  0  0  0  0
 16 13  1  0  0  0  0
 16 17  1  0  0  0  0
 16 18  1  0  0  0  0
 19 20  1  0  0  0  0
 19 23  1  0  0  0  0
 20 21  1  0  0  0  0
 20 34  1  0  0  0  0
 21 24  1  0  0  0  0
 21 22  1  0  0  0  0
 21 51  1  0  0  0  0
 22 25  1  0  0  0  0
 22 23  1  0  0  0  0
 22 50  1  0  0  0  0
 23 26  1  0  0  0  0
 26 29  2  0  0  0  0
 26 28  1  0  0  0  0
 27 30  2  0  0  0  0
 27 31  1  0  0  0  0
 27 54  1  0  0  0  0
 28 31  2  0  0  0  0
 28 46  1  0  0  0  0
 29 30  1  0  0  0  0
 29 55  1  0  0  0  0
 30 32  1  0  0  0  0
 31 33  1  0  0  0  0
 34 37  2  0  0  0  0
 34 36  1  0  0  0  0
 35 38  2  0  0  0  0
 35 39  1  0  0  0  0
 35 53  1  0  0  0  0
 36 39  2  0  0  0  0
 36 52  1  0  0  0  0
 37 38  1  0  0  0  0
 37 42  1  0  0  0  0
 38 40  1  0  0  0  0
 39 41  1  0  0  0  0
 42 43  1  0  0  0  0
 42 44  1  0  0  0  0
 42 45  1  0  0  0  0
 46 47  1  0  0  0  0
 46 48  1  0  0  0  0
 46 49  1  0  0  0  0
 16 19  1  0  0  0  0
M  END
>  <DFT-ENERGY>
-1978.3516443

$$$$
