
  CDK     08132409523D

 49 53  0  0  0  0  0  0  0  0999 V2000
   -1.0628    2.7465   -1.1968 H   0  0  0  0  0  0  0  0  0  0  0  0
   -2.2878    2.7217   -1.3098 C   0  0  0  0  0  0  0  0  0  0  0  0
   -2.2452    3.8060   -1.5588 H   0  0  0  0  0  0  0  0  0  0  0  0
   -2.4700    1.6458   -2.3303 C   0  0  0  0  0  0  0  0  0  0  0  0
   -3.4144    1.0773   -2.2989 H   0  0  0  0  0  0  0  0  0  0  0  0
   -2.0810    1.8555   -3.3417 H   0  0  0  0  0  0  0  0  0  0  0  0
   -1.0883    0.9920   -0.9377 Ru  0  0  0  0  0  0  0  0  0  0  0  0
   -2.5864    2.2339    0.0383 C   0  0  0  0  0  0  0  0  0  0  0  0
   -3.4823    1.6233    0.2035 H   0  0  0  0  0  0  0  0  0  0  0  0
   -2.2412    2.8359    0.8955 H   0  0  0  0  0  0  0  0  0  0  0  0
   -2.6743   -0.6866   -0.1203 Cl  0  0  0  0  0  0  0  0  0  0  0  0
    0.8322    1.8941   -2.0956 Cl  0  0  0  0  0  0  0  0  0  0  0  0
   -0.1670   -0.7937   -1.2877 C   0  0  0  0  0  0  0  0  0  0  0  0
    0.3800   -1.5140   -0.2686 N   0  0  0  0  0  0  0  0  0  0  0  0
    1.3017   -2.5525   -0.7708 C   0  0  0  0  0  0  0  0  0  0  0  0
    0.9455   -2.6060   -2.2685 C   0  0  0  0  0  0  0  0  0  0  0  0
    0.1558   -1.3720   -2.4585 N   0  0  0  0  0  0  0  0  0  0  0  0
    2.3493   -2.2260   -0.5988 H   0  0  0  0  0  0  0  0  0  0  0  0
    0.3235   -3.4900   -2.5262 H   0  0  0  0  0  0  0  0  0  0  0  0
   -0.3548   -0.9995   -3.7487 C   0  0  0  0  0  0  0  0  0  0  0  0
   -1.2763   -0.2730   -6.2800 C   0  0  0  0  0  0  0  0  0  0  0  0
   -1.6327   -1.4484   -4.1549 C   0  0  0  0  0  0  0  0  0  0  0  0
    0.4584   -0.2288   -4.5923 C   0  0  0  0  0  0  0  0  0  0  0  0
   -0.0018    0.1376   -5.8636 C   0  0  0  0  0  0  0  0  0  0  0  0
   -2.0734   -1.0573   -5.4344 C   0  0  0  0  0  0  0  0  0  0  0  0
    0.6302    0.7529   -6.5191 H   0  0  0  0  0  0  0  0  0  0  0  0
   -3.0687   -1.3860   -5.7695 H   0  0  0  0  0  0  0  0  0  0  0  0
    0.3372   -1.0092    1.0584 C   0  0  0  0  0  0  0  0  0  0  0  0
    0.0649    0.1265    3.6113 C   0  0  0  0  0  0  0  0  0  0  0  0
    0.3868    0.3911    1.2275 C   0  0  0  0  0  0  0  0  0  0  0  0
    0.1153   -1.8626    2.1638 C   0  0  0  0  0  0  0  0  0  0  0  0
    0.0058   -1.2638    3.4332 C   0  0  0  0  0  0  0  0  0  0  0  0
    0.2396    0.9599    2.4996 C   0  0  0  0  0  0  0  0  0  0  0  0
   -0.1756   -1.9148    4.3018 H   0  0  0  0  0  0  0  0  0  0  0  0
    0.2762    2.0526    2.6117 H   0  0  0  0  0  0  0  0  0  0  0  0
   -0.1148   -3.3411    1.9955 C   0  0  0  0  0  0  0  0  0  0  0  0
    0.8240   -3.9048    1.8076 H   0  0  0  0  0  0  0  0  0  0  0  0
   -0.8010   -3.5278    1.1442 H   0  0  0  0  0  0  0  0  0  0  0  0
   -0.5745   -3.7686    2.9062 H   0  0  0  0  0  0  0  0  0  0  0  0
   -2.4896   -2.3005   -3.2613 C   0  0  0  0  0  0  0  0  0  0  0  0
   -2.7368   -1.7741   -2.3141 H   0  0  0  0  0  0  0  0  0  0  0  0
   -1.9712   -3.2394   -2.9727 H   0  0  0  0  0  0  0  0  0  0  0  0
   -3.4308   -2.5809   -3.7704 H   0  0  0  0  0  0  0  0  0  0  0  0
    1.8352   -2.6024   -2.9265 H   0  0  0  0  0  0  0  0  0  0  0  0
    1.1481   -3.5228   -0.2664 H   0  0  0  0  0  0  0  0  0  0  0  0
    0.6578    1.0418    0.3633 H   0  0  0  0  0  0  0  0  0  0  0  0
   -0.0430    0.5552    4.6177 H   0  0  0  0  0  0  0  0  0  0  0  0
   -1.6527    0.0144   -7.2727 H   0  0  0  0  0  0  0  0  0  0  0  0
    1.4361    0.1049   -4.2234 H   0  0  0  0  0  0  0  0  0  0  0  0
  1  2  1  0  0  0  0
  1  7  1  0  0  0  0
  2  3  1  0  0  0  0
  2  4  1  0  0  0  0
  4  5  1  0  0  0  0
  4  6  1  0  0  0  0
  7  8  1  0  0  0  0
  4  7  1  0  0  0  0
  2  8  1  0  0  0  0
  8  9  1  0  0  0  0
  8 10  1  0  0  0  0
  7 11  1  0  0  0  0
  7 12  1  0  0  0  0
 13 14  1  0  0  0  0
 13 17  1  0  0  0  0
 14 15  1  0  0  0  0
 14 28  1  0  0  0  0
 15 18  1  0  0  0  0
 15 16  1  0  0  0  0
 15 45  1  0  0  0  0
 16 19  1  0  0  0  0
 16 17  1  0  0  0  0
 16 44  1  0  0  0  0
 17 20  1  0  0  0  0
 20 23  2  0  0  0  0
 20 22  1  0  0  0  0
 21 24  2  0  0  0  0
 21 25  1  0  0  0  0
 21 48  1  0  0  0  0
 22 25  2  0  0  0  0
 22 40  1  0  0  0  0
 23 24  1  0  0  0  0
 23 49  1  0  0  0  0
 24 26  1  0  0  0  0
 25 27  1  0  0  0  0
 28 31  2  0  0  0  0
 28 30  1  0  0  0  0
 29 32  2  0  0  0  0
 29 33  1  0  0  0  0
 29 47  1  0  0  0  0
 30 33  2  0  0  0  0
 30 46  1  0  0  0  0
 31 32  1  0  0  0  0
 31 36  1  0  0  0  0
 32 34  1  0  0  0  0
 33 35  1  0  0  0  0
 36 37  1  0  0  0  0
 36 38  1  0  0  0  0
 36 39  1  0  0  0  0
 40 41  1  0  0  0  0
 40 42  1  0  0  0  0
 40 43  1  0  0  0  0
  7 13  1  0  0  0  0
M  END
>  <DFT-ENERGY>
-1899.80259506

$$$$
