
  CDK     08132408013D

 43 44  0  0  0  0  0  0  0  0999 V2000
    1.0542    0.6968   -3.4646 H   0  0  0  0  0  0  0  0  0  0  0  0
    2.2826    0.7045   -3.3938 C   0  0  0  0  0  0  0  0  0  0  0  0
    2.2791    0.6330   -4.5060 H   0  0  0  0  0  0  0  0  0  0  0  0
    2.5371   -0.4638   -2.5060 C   0  0  0  0  0  0  0  0  0  0  0  0
    3.4490   -0.4420   -1.8861 H   0  0  0  0  0  0  0  0  0  0  0  0
    2.2616   -1.4534   -2.9090 H   0  0  0  0  0  0  0  0  0  0  0  0
    0.9966    0.6497   -1.6924 Ru  0  0  0  0  0  0  0  0  0  0  0  0
    2.4117    1.9720   -2.6746 C   0  0  0  0  0  0  0  0  0  0  0  0
    3.2756    2.1381   -2.0202 H   0  0  0  0  0  0  0  0  0  0  0  0
    1.9801    2.8711   -3.1467 H   0  0  0  0  0  0  0  0  0  0  0  0
    2.4655    1.3082    0.1333 Cl  0  0  0  0  0  0  0  0  0  0  0  0
   -0.6788   -0.4875   -2.9733 Cl  0  0  0  0  0  0  0  0  0  0  0  0
   -0.2168   -0.0357    0.3103 P   0  0  0  0  0  0  0  0  0  0  0  0
   -0.6558    1.6634    0.9914 C   0  0  0  0  0  0  0  0  0  0  0  0
    0.3276    1.9926    1.3868 H   0  0  0  0  0  0  0  0  0  0  0  0
   -0.9806    2.5572   -0.2177 C   0  0  0  0  0  0  0  0  0  0  0  0
   -0.1509    2.5287   -0.9744 H   0  0  0  0  0  0  0  0  0  0  0  0
   -1.9148    2.2652   -0.7326 H   0  0  0  0  0  0  0  0  0  0  0  0
   -2.9786   -0.2855   -0.5160 C   0  0  0  0  0  0  0  0  0  0  0  0
   -3.8824   -0.9297   -0.4796 H   0  0  0  0  0  0  0  0  0  0  0  0
   -3.2490    0.6826   -0.0550 H   0  0  0  0  0  0  0  0  0  0  0  0
    0.7766   -0.9364    1.6425 C   0  0  0  0  0  0  0  0  0  0  0  0
    1.4034   -0.1147    2.0429 H   0  0  0  0  0  0  0  0  0  0  0  0
   -1.8414   -0.9949    0.2301 C   0  0  0  0  0  0  0  0  0  0  0  0
   -1.6278   -2.4249   -0.2858 C   0  0  0  0  0  0  0  0  0  0  0  0
   -1.6976    1.7398    2.1082 C   0  0  0  0  0  0  0  0  0  0  0  0
   -1.8256    2.7972    2.4226 H   0  0  0  0  0  0  0  0  0  0  0  0
   -2.6938    1.3695    1.7960 H   0  0  0  0  0  0  0  0  0  0  0  0
    1.7174   -1.9660    1.0035 C   0  0  0  0  0  0  0  0  0  0  0  0
    2.3561   -1.4876    0.2383 H   0  0  0  0  0  0  0  0  0  0  0  0
    2.3742   -2.4038    1.7838 H   0  0  0  0  0  0  0  0  0  0  0  0
   -0.0520   -1.5386    2.7825 C   0  0  0  0  0  0  0  0  0  0  0  0
   -0.6697   -2.3963    2.4489 H   0  0  0  0  0  0  0  0  0  0  0  0
   -0.7217   -0.8015    3.2664 H   0  0  0  0  0  0  0  0  0  0  0  0
    0.6364   -1.9208    3.5649 H   0  0  0  0  0  0  0  0  0  0  0  0
   -1.0718    3.6182    0.0949 H   0  0  0  0  0  0  0  0  0  0  0  0
    1.1634   -2.7981    0.5252 H   0  0  0  0  0  0  0  0  0  0  0  0
   -2.1237   -1.0488    1.3052 H   0  0  0  0  0  0  0  0  0  0  0  0
   -1.3859    1.1691    3.0043 H   0  0  0  0  0  0  0  0  0  0  0  0
   -2.5959   -2.9680   -0.2715 H   0  0  0  0  0  0  0  0  0  0  0  0
   -0.9174   -2.9966    0.3407 H   0  0  0  0  0  0  0  0  0  0  0  0
   -1.2491   -2.4169   -1.3251 H   0  0  0  0  0  0  0  0  0  0  0  0
   -2.7219   -0.1126   -1.5767 H   0  0  0  0  0  0  0  0  0  0  0  0
  1  2  1  0  0  0  0
  1  7  1  0  0  0  0
  2  3  1  0  0  0  0
  2  4  1  0  0  0  0
  4  5  1  0  0  0  0
  6  4  1  0  0  0  0
  7  8  1  0  0  0  0
  7  4  1  0  0  0  0
  8  2  1  0  0  0  0
  8  9  1  0  0  0  0
 10  8  1  0  0  0  0
  7 11  1  0  0  0  0
  7 12  1  0  0  0  0
 13 14  1  0  0  0  0
 13 22  1  0  0  0  0
 13 24  1  0  0  0  0
 14 15  1  0  0  0  0
 14 16  1  0  0  0  0
 14 26  1  0  0  0  0
 16 17  1  0  0  0  0
 16 18  1  0  0  0  0
 19 20  1  0  0  0  0
 19 21  1  0  0  0  0
 19 24  1  0  0  0  0
 22 23  1  0  0  0  0
 22 29  1  0  0  0  0
 22 32  1  0  0  0  0
 24 25  1  0  0  0  0
 26 27  1  0  0  0  0
 26 28  1  0  0  0  0
 29 30  1  0  0  0  0
 29 31  1  0  0  0  0
 32 33  1  0  0  0  0
 32 34  1  0  0  0  0
 35 32  1  0  0  0  0
 36 16  1  0  0  0  0
 37 29  1  0  0  0  0
 38 24  1  0  0  0  0
 39 26  1  0  0  0  0
 40 25  1  0  0  0  0
 41 25  1  0  0  0  0
 42 25  1  0  0  0  0
 43 19  1  0  0  0  0
  7 13  1  0  0  0  0
M  END
>  <DFT-ENERGY>
-1828.87178221

$$$$
