
  CDK     08132409193D

 43 43  0  0  0  0  0  0  0  0999 V2000
    1.6391    0.9567   -0.1949 Ru  0  0  0  0  0  0  0  0  0  0  0  0
    3.1239    0.9879   -1.4677 C   0  0  0  0  0  0  0  0  0  0  0  0
    2.8977    1.4278   -2.4563 H   0  0  0  0  0  0  0  0  0  0  0  0
    3.5642    2.0701   -0.4022 C   0  0  0  0  0  0  0  0  0  0  0  0
    3.6192    3.0336   -0.9417 H   0  0  0  0  0  0  0  0  0  0  0  0
    2.6119    2.3062    0.8364 C   0  0  0  0  0  0  0  0  0  0  0  0
    3.0560    1.9606    1.7880 H   0  0  0  0  0  0  0  0  0  0  0  0
    2.1634    3.3166    0.8458 H   0  0  0  0  0  0  0  0  0  0  0  0
    4.5226    1.7110    0.0158 H   0  0  0  0  0  0  0  0  0  0  0  0
    3.7812    0.0989   -1.4685 H   0  0  0  0  0  0  0  0  0  0  0  0
    0.5927    2.7063   -1.4268 Cl  0  0  0  0  0  0  0  0  0  0  0  0
    2.7665   -0.7649    1.0456 Cl  0  0  0  0  0  0  0  0  0  0  0  0
   -0.3220   -0.3369    0.1006 P   0  0  0  0  0  0  0  0  0  0  0  0
   -0.5352   -0.5595    1.9566 C   0  0  0  0  0  0  0  0  0  0  0  0
    0.2853   -1.2772    2.1727 H   0  0  0  0  0  0  0  0  0  0  0  0
   -0.2096    0.7430    2.7026 C   0  0  0  0  0  0  0  0  0  0  0  0
    0.8135    1.0908    2.4603 H   0  0  0  0  0  0  0  0  0  0  0  0
   -0.9217    1.5570    2.4658 H   0  0  0  0  0  0  0  0  0  0  0  0
   -2.4265    1.5433    0.0201 C   0  0  0  0  0  0  0  0  0  0  0  0
   -1.6840    2.3414   -0.1789 H   0  0  0  0  0  0  0  0  0  0  0  0
   -3.3903    1.8471   -0.4388 H   0  0  0  0  0  0  0  0  0  0  0  0
    0.0443   -2.0470   -0.5949 C   0  0  0  0  0  0  0  0  0  0  0  0
    0.7173   -2.4511    0.1915 H   0  0  0  0  0  0  0  0  0  0  0  0
   -1.9693    0.2173   -0.6019 C   0  0  0  0  0  0  0  0  0  0  0  0
   -1.9194    0.3096   -2.1329 C   0  0  0  0  0  0  0  0  0  0  0  0
   -1.8810   -1.1500    2.3873 C   0  0  0  0  0  0  0  0  0  0  0  0
   -1.8704   -1.3153    3.4848 H   0  0  0  0  0  0  0  0  0  0  0  0
   -2.7258   -0.4666    2.1691 H   0  0  0  0  0  0  0  0  0  0  0  0
    0.8647   -1.9452   -1.8892 C   0  0  0  0  0  0  0  0  0  0  0  0
    1.8063   -1.3897   -1.7141 H   0  0  0  0  0  0  0  0  0  0  0  0
    1.1347   -2.9639   -2.2365 H   0  0  0  0  0  0  0  0  0  0  0  0
   -1.1804   -2.9523   -0.7585 C   0  0  0  0  0  0  0  0  0  0  0  0
   -1.8769   -2.5753   -1.5337 H   0  0  0  0  0  0  0  0  0  0  0  0
   -1.7504   -3.0805    0.1812 H   0  0  0  0  0  0  0  0  0  0  0  0
   -0.8462   -3.9599   -1.0825 H   0  0  0  0  0  0  0  0  0  0  0  0
   -0.2521    0.5625    3.7966 H   0  0  0  0  0  0  0  0  0  0  0  0
    0.3080   -1.4460   -2.7057 H   0  0  0  0  0  0  0  0  0  0  0  0
   -2.6749   -0.5908   -0.3047 H   0  0  0  0  0  0  0  0  0  0  0  0
   -2.0958   -2.1248    1.9099 H   0  0  0  0  0  0  0  0  0  0  0  0
   -2.9054    0.6530   -2.5092 H   0  0  0  0  0  0  0  0  0  0  0  0
   -1.7032   -0.6648   -2.6110 H   0  0  0  0  0  0  0  0  0  0  0  0
   -1.1538    1.0446   -2.4515 H   0  0  0  0  0  0  0  0  0  0  0  0
   -2.5889    1.4665    1.1120 H   0  0  0  0  0  0  0  0  0  0  0  0
  2  4  1  0  0  0  0
  2  1  1  0  0  0  0
  2  3  1  0  0  0  0
  4  6  1  0  0  0  0
  4  5  1  0  0  0  0
  6  1  1  0  0  0  0
  6  8  1  0  0  0  0
  7  6  1  0  0  0  0
  9  4  1  0  0  0  0
 10  2  1  0  0  0  0
  1 11  1  0  0  0  0
  1 12  1  0  0  0  0
 13 14  1  0  0  0  0
 13 22  1  0  0  0  0
 13 24  1  0  0  0  0
 14 15  1  0  0  0  0
 14 16  1  0  0  0  0
 14 26  1  0  0  0  0
 16 17  1  0  0  0  0
 16 18  1  0  0  0  0
 19 20  1  0  0  0  0
 19 21  1  0  0  0  0
 19 24  1  0  0  0  0
 22 23  1  0  0  0  0
 22 29  1  0  0  0  0
 22 32  1  0  0  0  0
 24 25  1  0  0  0  0
 26 27  1  0  0  0  0
 26 28  1  0  0  0  0
 29 30  1  0  0  0  0
 29 31  1  0  0  0  0
 32 33  1  0  0  0  0
 32 34  1  0  0  0  0
 35 32  1  0  0  0  0
 36 16  1  0  0  0  0
 37 29  1  0  0  0  0
 38 24  1  0  0  0  0
 39 26  1  0  0  0  0
 40 25  1  0  0  0  0
 41 25  1  0  0  0  0
 42 25  1  0  0  0  0
 43 19  1  0  0  0  0
  1 13  1  0  0  0  0
M  END
>  <DFT-ENERGY>
-1828.90940072

$$$$
