
  CDK     08132404443D

 49 49  0  0  0  0  0  0  0  0999 V2000
   -0.8230   -3.4915   -2.1455 C   0  0  0  0  0  0  0  0  0  0  0  0
    0.1395   -3.3199   -2.6595 H   0  0  0  0  0  0  0  0  0  0  0  0
   -1.1846   -4.5189   -2.3742 H   0  0  0  0  0  0  0  0  0  0  0  0
   -1.5704   -2.7906   -2.5655 H   0  0  0  0  0  0  0  0  0  0  0  0
   -0.6948   -3.3531   -0.6448 C   0  0  0  0  0  0  0  0  0  0  0  0
   -1.6318   -3.4567   -0.0649 H   0  0  0  0  0  0  0  0  0  0  0  0
    0.4793   -3.7535    0.0459 C   0  0  0  0  0  0  0  0  0  0  0  0
    1.3786   -3.9096   -0.5765 H   0  0  0  0  0  0  0  0  0  0  0  0
    0.3905   -4.5045    1.3530 C   0  0  0  0  0  0  0  0  0  0  0  0
    1.3550   -4.5435    1.8931 H   0  0  0  0  0  0  0  0  0  0  0  0
    0.0905   -5.5509    1.1272 H   0  0  0  0  0  0  0  0  0  0  0  0
   -0.3834   -4.0575    2.0073 H   0  0  0  0  0  0  0  0  0  0  0  0
    1.4573   -1.9000    1.0429 C   0  0  0  0  0  0  0  0  0  0  0  0
    1.3047   -2.0838    2.1294 H   0  0  0  0  0  0  0  0  0  0  0  0
    2.4904   -2.0267    0.6471 H   0  0  0  0  0  0  0  0  0  0  0  0
    0.0687   -1.3845   -0.0334 Ru  0  0  0  0  0  0  0  0  0  0  0  0
   -1.4675   -1.5722    1.8008 Cl  0  0  0  0  0  0  0  0  0  0  0  0
    1.5594   -1.2477   -1.9274 Cl  0  0  0  0  0  0  0  0  0  0  0  0
   -0.0218    0.9704   -0.1440 P   0  0  0  0  0  0  0  0  0  0  0  0
   -0.9631    1.1867   -1.7558 C   0  0  0  0  0  0  0  0  0  0  0  0
   -0.1941    0.8506   -2.4854 H   0  0  0  0  0  0  0  0  0  0  0  0
   -2.1075    0.1626   -1.7934 C   0  0  0  0  0  0  0  0  0  0  0  0
   -1.7407   -0.8703   -1.5930 H   0  0  0  0  0  0  0  0  0  0  0  0
   -2.8995    0.3748   -1.0518 H   0  0  0  0  0  0  0  0  0  0  0  0
   -2.3734    1.7376    1.2940 C   0  0  0  0  0  0  0  0  0  0  0  0
   -2.5905    0.6683    1.4817 H   0  0  0  0  0  0  0  0  0  0  0  0
   -2.7781    2.3257    2.1444 H   0  0  0  0  0  0  0  0  0  0  0  0
    1.6444    1.8140   -0.4427 C   0  0  0  0  0  0  0  0  0  0  0  0
    1.8062    1.5990   -1.5202 H   0  0  0  0  0  0  0  0  0  0  0  0
   -0.8624    1.9798    1.1980 C   0  0  0  0  0  0  0  0  0  0  0  0
   -0.1651    1.7028    2.5379 C   0  0  0  0  0  0  0  0  0  0  0  0
   -1.4200    2.6039   -2.1057 C   0  0  0  0  0  0  0  0  0  0  0  0
   -2.1123    3.0237   -1.3490 H   0  0  0  0  0  0  0  0  0  0  0  0
   -0.5668    3.3002   -2.2153 H   0  0  0  0  0  0  0  0  0  0  0  0
    2.7881    1.1506    0.3321 C   0  0  0  0  0  0  0  0  0  0  0  0
    2.9165    0.1027    0.0084 H   0  0  0  0  0  0  0  0  0  0  0  0
    3.7346    1.6924    0.1258 H   0  0  0  0  0  0  0  0  0  0  0  0
    1.6236    3.3308   -0.2134 C   0  0  0  0  0  0  0  0  0  0  0  0
    1.5357    3.5816    0.8631 H   0  0  0  0  0  0  0  0  0  0  0  0
    0.8041    3.8447   -0.7513 H   0  0  0  0  0  0  0  0  0  0  0  0
    2.5801    3.7652   -0.5708 H   0  0  0  0  0  0  0  0  0  0  0  0
   -2.5686    0.1377   -2.8026 H   0  0  0  0  0  0  0  0  0  0  0  0
    2.6220    1.1732    1.4281 H   0  0  0  0  0  0  0  0  0  0  0  0
   -0.6880    3.0378    0.9053 H   0  0  0  0  0  0  0  0  0  0  0  0
   -1.9606    2.5917   -3.0756 H   0  0  0  0  0  0  0  0  0  0  0  0
   -0.6272    2.3225    3.3343 H   0  0  0  0  0  0  0  0  0  0  0  0
    0.9152    1.9455    2.5098 H   0  0  0  0  0  0  0  0  0  0  0  0
   -0.2823    0.6359    2.8144 H   0  0  0  0  0  0  0  0  0  0  0  0
   -2.9125    2.0632    0.3839 H   0  0  0  0  0  0  0  0  0  0  0  0
  1  2  1  0  0  0  0
  1  5  1  0  0  0  0
  1  3  1  0  0  0  0
  1  4  1  0  0  0  0
  5  6  1  0  0  0  0
  5 16  1  0  0  0  0
  5  7  1  0  0  0  0
  7  9  1  0  0  0  0
  7  8  1  0  0  0  0
  9 10  1  0  0  0  0
  9 11  1  0  0  0  0
  9 12  1  0  0  0  0
 13 14  1  0  0  0  0
 13 15  1  0  0  0  0
  7 13  1  0  0  0  0
 13 16  1  0  0  0  0
 16 17  1  0  0  0  0
 16 18  1  0  0  0  0
 19 20  1  0  0  0  0
 19 28  1  0  0  0  0
 19 30  1  0  0  0  0
 20 21  1  0  0  0  0
 20 22  1  0  0  0  0
 20 32  1  0  0  0  0
 22 23  1  0  0  0  0
 22 24  1  0  0  0  0
 25 26  1  0  0  0  0
 25 27  1  0  0  0  0
 25 30  1  0  0  0  0
 28 29  1  0  0  0  0
 28 35  1  0  0  0  0
 28 38  1  0  0  0  0
 30 31  1  0  0  0  0
 32 33  1  0  0  0  0
 32 34  1  0  0  0  0
 35 36  1  0  0  0  0
 35 37  1  0  0  0  0
 38 39  1  0  0  0  0
 38 40  1  0  0  0  0
 38 41  1  0  0  0  0
 22 42  1  0  0  0  0
 35 43  1  0  0  0  0
 30 44  1  0  0  0  0
 32 45  1  0  0  0  0
 31 46  1  0  0  0  0
 31 47  1  0  0  0  0
 31 48  1  0  0  0  0
 25 49  1  0  0  0  0
 16 19  1  0  0  0  0
M  END
>  <DFT-ENERGY>
-1907.41822724

$$$$
