IPrP-3_A2
  CDK     08122415263D

 57 58  0  0  0  0  0  0  0  0999 V2000
   -0.2342    0.0893   -0.5106 Ru  0  0  0  0  0  0  0  0  0  0  0  0
   -2.0086   -0.0202   -1.8998 O   0  0  0  0  0  0  0  0  0  0  0  0
   -1.3846   -0.9168    0.4935 C   0  0  0  0  0  0  0  0  0  0  0  0
   -1.1342   -1.1948    1.5162 H   0  0  0  0  0  0  0  0  0  0  0  0
   -2.2914    0.7390   -3.1256 C   0  0  0  0  0  0  0  0  0  0  0  0
   -2.6628    0.0199   -3.8863 H   0  0  0  0  0  0  0  0  0  0  0  0
   -0.9004    1.2641   -3.4565 C   0  0  0  0  0  0  0  0  0  0  0  0
   -0.8722    1.7540   -4.4336 H   0  0  0  0  0  0  0  0  0  0  0  0
   -0.5612    1.9939   -2.6970 H   0  0  0  0  0  0  0  0  0  0  0  0
   -0.1672    0.4329   -3.4648 H   0  0  0  0  0  0  0  0  0  0  0  0
   -3.2940    1.8313   -2.7954 C   0  0  0  0  0  0  0  0  0  0  0  0
   -3.3380    2.5959   -3.5771 H   0  0  0  0  0  0  0  0  0  0  0  0
   -4.3055    1.4418   -2.6402 H   0  0  0  0  0  0  0  0  0  0  0  0
   -3.0026    2.3386   -1.8554 H   0  0  0  0  0  0  0  0  0  0  0  0
   -2.9498   -0.8782   -1.3948 C   0  0  0  0  0  0  0  0  0  0  0  0
   -4.0952   -1.2983   -2.0478 C   0  0  0  0  0  0  0  0  0  0  0  0
   -4.3347   -0.9615   -3.0538 H   0  0  0  0  0  0  0  0  0  0  0  0
   -4.9435   -2.1833   -1.3903 C   0  0  0  0  0  0  0  0  0  0  0  0
   -5.8468   -2.5270   -1.8990 H   0  0  0  0  0  0  0  0  0  0  0  0
   -4.6649   -2.6387   -0.1050 C   0  0  0  0  0  0  0  0  0  0  0  0
   -5.3489   -3.3264    0.3891 H   0  0  0  0  0  0  0  0  0  0  0  0
   -3.5196   -2.2070    0.5366 C   0  0  0  0  0  0  0  0  0  0  0  0
   -3.3049   -2.5490    1.5479 H   0  0  0  0  0  0  0  0  0  0  0  0
   -2.6361   -1.3354   -0.1028 C   0  0  0  0  0  0  0  0  0  0  0  0
   -0.9471    2.1795    0.0339 Cl  0  0  0  0  0  0  0  0  0  0  0  0
    0.6871   -1.5531   -1.8619 Cl  0  0  0  0  0  0  0  0  0  0  0  0
    1.5345    0.0170    0.8074 P   0  0  0  0  0  0  0  0  0  0  0  0
    2.9610    0.7603   -0.2677 C   0  0  0  0  0  0  0  0  0  0  0  0
    3.2921   -0.0732   -0.9470 H   0  0  0  0  0  0  0  0  0  0  0  0
    2.3458    1.8572   -1.1323 C   0  0  0  0  0  0  0  0  0  0  0  0
    1.7320    1.4450   -1.9578 H   0  0  0  0  0  0  0  0  0  0  0  0
    1.7240    2.5788   -0.5754 H   0  0  0  0  0  0  0  0  0  0  0  0
    1.6737    2.4005    2.3846 C   0  0  0  0  0  0  0  0  0  0  0  0
    0.8623    2.8619    1.7963 H   0  0  0  0  0  0  0  0  0  0  0  0
    1.6321    2.8795    3.3728 H   0  0  0  0  0  0  0  0  0  0  0  0
    2.2503   -1.7437    1.1621 C   0  0  0  0  0  0  0  0  0  0  0  0
    2.6276   -2.1142    0.1672 H   0  0  0  0  0  0  0  0  0  0  0  0
    1.5221    0.8911    2.5210 C   0  0  0  0  0  0  0  0  0  0  0  0
    0.2057    0.5344    3.2033 C   0  0  0  0  0  0  0  0  0  0  0  0
    4.1613    1.2351    0.5358 C   0  0  0  0  0  0  0  0  0  0  0  0
    4.9670    1.5648   -0.1355 H   0  0  0  0  0  0  0  0  0  0  0  0
    3.9241    2.0969    1.1835 H   0  0  0  0  0  0  0  0  0  0  0  0
    1.1454   -2.6888    1.6144 C   0  0  0  0  0  0  0  0  0  0  0  0
    0.3759   -2.8176    0.8296 H   0  0  0  0  0  0  0  0  0  0  0  0
    1.5519   -3.6951    1.7947 H   0  0  0  0  0  0  0  0  0  0  0  0
    3.4091   -1.7098    2.1500 C   0  0  0  0  0  0  0  0  0  0  0  0
    3.0976   -1.4376    3.1671 H   0  0  0  0  0  0  0  0  0  0  0  0
    4.2154   -1.0220    1.8441 H   0  0  0  0  0  0  0  0  0  0  0  0
    3.8680   -2.7067    2.2282 H   0  0  0  0  0  0  0  0  0  0  0  0
    3.1297    2.4522   -1.6234 H   0  0  0  0  0  0  0  0  0  0  0  0
    0.6556   -2.3828    2.5462 H   0  0  0  0  0  0  0  0  0  0  0  0
    2.3766    0.4935    3.1223 H   0  0  0  0  0  0  0  0  0  0  0  0
    4.5858    0.4400    1.1711 H   0  0  0  0  0  0  0  0  0  0  0  0
    0.1289    1.0356    4.1793 H   0  0  0  0  0  0  0  0  0  0  0  0
    0.0923   -0.5395    3.3978 H   0  0  0  0  0  0  0  0  0  0  0  0
   -0.6713    0.8824    2.6227 H   0  0  0  0  0  0  0  0  0  0  0  0
    2.6311    2.6998    1.9287 H   0  0  0  0  0  0  0  0  0  0  0  0
  2  1  1  0  0  0  0
  3  1  2  0  0  0  0
  4  3  1  0  0  0  0
  5  2  1  0  0  0  0
  6  5  1  0  0  0  0
  7  5  1  0  0  0  0
  8  7  1  0  0  0  0
  9  7  1  0  0  0  0
 10  7  1  0  0  0  0
 11  5  1  0  0  0  0
 12 11  1  0  0  0  0
 13 11  1  0  0  0  0
 14 11  1  0  0  0  0
 15  2  1  0  0  0  0
 15 24  1  0  0  0  0
 16 15  2  0  0  0  0
 17 16  1  0  0  0  0
 18 16  1  0  0  0  0
 19 18  1  0  0  0  0
 20 18  2  0  0  0  0
 21 20  1  0  0  0  0
 22 20  1  0  0  0  0
 22 24  2  0  0  0  0
 23 22  1  0  0  0  0
 24  3  1  0  0  0  0
  1 25  1  0  0  0  0
  1 26  1  0  0  0  0
 27 28  1  0  0  0  0
 27 36  1  0  0  0  0
 27 38  1  0  0  0  0
 28 29  1  0  0  0  0
 28 30  1  0  0  0  0
 28 40  1  0  0  0  0
 30 31  1  0  0  0  0
 30 32  1  0  0  0  0
 33 34  1  0  0  0  0
 33 35  1  0  0  0  0
 33 38  1  0  0  0  0
 36 37  1  0  0  0  0
 36 43  1  0  0  0  0
 36 46  1  0  0  0  0
 38 39  1  0  0  0  0
 40 41  1  0  0  0  0
 40 42  1  0  0  0  0
 43 44  1  0  0  0  0
 43 45  1  0  0  0  0
 46 47  1  0  0  0  0
 46 48  1  0  0  0  0
 49 46  1  0  0  0  0
 50 30  1  0  0  0  0
 51 43  1  0  0  0  0
 52 38  1  0  0  0  0
 53 40  1  0  0  0  0
 54 39  1  0  0  0  0
 55 39  1  0  0  0  0
 56 39  1  0  0  0  0
 57 33  1  0  0  0  0
  1 27  1  0  0  0  0
M  END
> <FrozenCore-PM6_ENERGY>
175.679

> <RMSD_CONF_CG-CS>
0.344353

> <RMSD_CONF_GO-CS>
0.000000

> <UID>


> <DESCRIPTOR_DEFINITION_1>
desc1=( echo "1 * ( e( $hartree_to_kcalmol * ( ( $freeEnergyZ - $freeEnergyD ) - ( $freeEnergyX + 2*$G_Ethene - $freeEnergyD - 2*$G_Propene ) - $DDG_reference_HGII ) / $kT ) ) " | bc -l )

> <DESCRIPTOR_DEFINITION_2>
desc1=( echo "1 * ( e( $hartree_to_kcalmol * ( ( $freeEnergyZ - $freeEnergyD ) - ( $freeEnergyX + 2*$G_Ethene - $freeEnergyD - 2*$G_Propene ) - $DDG_reference_HGII ) / $kT ) ) " | bc -l )

> <DESCRIPTOR_DEFINITION_3>
desc1=( echo "1 * ( e( $hartree_to_kcalmol * ( ( $freeEnergyZ - $freeEnergyD ) - ( $freeEnergyX + 2*$G_Ethene - $freeEnergyD - 2*$G_Propene ) - $DDG_reference_HGII ) / $kT ) ) " | bc -l )

> <WEIGHT_DEFINITION_1>
w1=$( echo "1 / ( 1 + e( $hartree_to_kcalmol * ( ( ( $freeEnergyX + 2*$G_Ethene - $freeEnergyD - 2*$G_Propene ) ) - ( $DG_referenceProductionBarrier + $magnitude4 ) ) / $kT ) )" | bc -l )

> <WEIGHT_DEFINITION_2>
w1=$( echo "1 / ( 1 + e( $hartree_to_kcalmol * ( ( ( $freeEnergyX + 2*$G_Ethene - $freeEnergyD - 2*$G_Propene ) ) - ( $DG_referenceProductionBarrier + $magnitude4 ) ) / $kT ) )" | bc -l )

> <WEIGHT_DEFINITION_3>
w1=$( echo "1 / ( 1 + e( $hartree_to_kcalmol * ( ( ( $freeEnergyX + 2*$G_Ethene - $freeEnergyD - 2*$G_Propene ) ) - ( $DG_referenceProductionBarrier + $magnitude4 ) ) / $kT ) )" | bc -l )

> <WEIGHT_DEFINITION_4>
w1=$( echo "1 / ( 1 + e( $hartree_to_kcalmol * ( ( ( $freeEnergyX + 2*$G_Ethene - $freeEnergyD - 2*$G_Propene ) ) - ( $DG_referenceProductionBarrier + $magnitude4 ) ) / $kT ) )" | bc -l )

> <CALCULATION_OF_OVERALL_FITNESS>
fitness=$( echo "( $desc1 + $desc2 + $desc3 ) * ( $w1 * $w2 * $w3 * $w4 )" | bc -l )

> <freeEnergyA>
-2174.15894766

> <freeEnergyF>
-2174.13683666

> <freeEnergyE>
-2174.15894766

> <freeEnergyC>
-1828.89289977

> <freeEnergyL>
-696.320350901

> <freeEnergyX>
-1907.41822704

> <freeEnergyZ>
-1828.87178206

> <freeEnergyD>
-1828.90940069

> <G_Propene>
-117.738020895

> <G_Ethene>
-78.4716324751

> <G_HoveydaProd>
-502.204109499

> <G_SIMes>
-924.27249048

> <G_HG_RuCl2_SIMes>
-2402.13728523

> <DG_referenceProductionBarrier>
0.01468968

> <DG_referencePrecursorStabilityHII>
-0.0052201621

> <DG_referencePrecursorStabilityHI>
0.0117775312

> <DDG_referencePrecursorStability>
.0169976933

> <DG_referenceSynt>
0.0226072217

> <hartree_to_kcalmol>
627.49467516

> <boltzmann_constant>
0.0000000000000000000000138066

> <avogadro_number>
602214000000000000000000

> <jmol_to_kcalmol>
0.00023901

> <temp>
313.15

> <kT>
.6223089948281258706000000000

> <magnitude1>
1.43290809

> <magnitude2>
2.86581618

> <magnitude3>
4.29872427

> <magnitude4>
5.73163236

> <DFT_IDENTIFIER>
1723537104463

> <DFT_MACHINE>
158.39.114.73

> <XTB_IDENTIFIER>
NREC

> <XTB_MACHINE>
NREC

> <DESCRIPTOR_1>
.00017786095524697710

> <DESCRIPTOR_2>
8.576685194840337432

> <DESCRIPTOR_3>
0.0000000001

> <WEIGHT_1>
.99945664870005964193

> <WEIGHT_2>
.99986786303361987523

> <WEIGHT_3>
.21113026698512439699

> <WEIGHT_4>
.99999997923748136444

> <FITNESS>
1.80961228127006813369

$$$$
