M000000962_A1
  CDK     08022411513D

 94 99  0  0  0  0  0  0  0  0999 V2000
    0.4676   -1.0124   -0.6221 Ru  0  0  0  0  0  0  0  0  0  0  0  0
    0.4676   -2.7902   -2.0113 O   0  0  0  0  0  0  0  0  0  0  0  0
   -0.4657   -2.2226    0.3820 C   0  0  0  0  0  0  0  0  0  0  0  0
   -0.7586   -1.9898    1.4047 H   0  0  0  0  0  0  0  0  0  0  0  0
    1.2428   -3.0257   -3.2371 C   0  0  0  0  0  0  0  0  0  0  0  0
    0.5447   -3.4385   -3.9958 H   0  0  0  0  0  0  0  0  0  0  0  0
    1.6824   -1.6049   -3.5601 C   0  0  0  0  0  0  0  0  0  0  0  0
    2.3790   -1.2109   -2.7927 H   0  0  0  0  0  0  0  0  0  0  0  0
    0.8141   -0.9152   -3.5723 H   0  0  0  0  0  0  0  0  0  0  0  0
    2.1827   -1.5375   -4.5300 H   0  0  0  0  0  0  0  0  0  0  0  0
    2.3912   -3.9625   -2.9060 C   0  0  0  0  0  0  0  0  0  0  0  0
    2.8840   -3.6386   -1.9687 H   0  0  0  0  0  0  0  0  0  0  0  0
    3.1556   -3.9623   -3.6897 H   0  0  0  0  0  0  0  0  0  0  0  0
    2.0627   -4.9949   -2.7477 H   0  0  0  0  0  0  0  0  0  0  0  0
   -0.3308   -3.7824   -1.5063 C   0  0  0  0  0  0  0  0  0  0  0  0
   -0.6795   -4.9515   -2.1593 C   0  0  0  0  0  0  0  0  0  0  0  0
   -0.3275   -5.1711   -3.1645 H   0  0  0  0  0  0  0  0  0  0  0  0
   -1.5106   -5.8527   -1.5018 C   0  0  0  0  0  0  0  0  0  0  0  0
   -1.7975   -6.7755   -2.0102 H   0  0  0  0  0  0  0  0  0  0  0  0
   -1.9822   -5.6027   -0.2165 C   0  0  0  0  0  0  0  0  0  0  0  0
   -2.6261   -6.3279    0.2780 H   0  0  0  0  0  0  0  0  0  0  0  0
   -1.6219   -4.4330    0.4251 C   0  0  0  0  0  0  0  0  0  0  0  0
   -1.9765   -4.2398    1.4364 H   0  0  0  0  0  0  0  0  0  0  0  0
   -0.8065   -3.4975   -0.2143 C   0  0  0  0  0  0  0  0  0  0  0  0
    2.6280   -1.6034   -0.0699 Cl  0  0  0  0  0  0  0  0  0  0  0  0
   -1.2289   -0.1938   -1.9738 Cl  0  0  0  0  0  0  0  0  0  0  0  0
   -0.2695    1.0216    1.5512 N   0  0  0  0  0  0  0  0  0  0  0  0
   -0.1395    2.5175    1.8648 C   0  0  0  0  0  0  0  0  0  0  0  0
    0.6340    3.0408    0.6300 C   0  0  0  0  0  0  0  0  0  0  0  0
    1.4037    3.7802    0.9024 H   0  0  0  0  0  0  0  0  0  0  0  0
   -0.0383    3.5711   -0.0687 H   0  0  0  0  0  0  0  0  0  0  0  0
    1.2534    1.7944   -0.0539 C   0  0  0  0  0  0  0  0  0  0  0  0
    0.4056    0.5924    0.4431 C   0  0  0  0  0  0  0  0  0  0  0  0
    2.7480    1.6028    0.3748 C   0  0  0  0  0  0  0  0  0  0  0  0
    2.8747    0.6883    0.9850 H   0  0  0  0  0  0  0  0  0  0  0  0
    3.0811    2.4410    1.0078 H   0  0  0  0  0  0  0  0  0  0  0  0
    3.5993    1.5282   -0.9141 C   0  0  0  0  0  0  0  0  0  0  0  0
    4.0309    0.5124   -1.0413 H   0  0  0  0  0  0  0  0  0  0  0  0
    4.4503    2.2295   -0.8849 H   0  0  0  0  0  0  0  0  0  0  0  0
    2.6473    1.8434   -2.0304 C   0  0  0  0  0  0  0  0  0  0  0  0
    2.9546    2.0379   -3.3690 C   0  0  0  0  0  0  0  0  0  0  0  0
    3.9708    1.9588   -3.7470 H   0  0  0  0  0  0  0  0  0  0  0  0
    1.9092    2.3515   -4.2633 C   0  0  0  0  0  0  0  0  0  0  0  0
    0.5804    2.4747   -3.7908 C   0  0  0  0  0  0  0  0  0  0  0  0
    0.2857    2.2867   -2.4303 C   0  0  0  0  0  0  0  0  0  0  0  0
   -0.7372    2.4025   -2.0712 H   0  0  0  0  0  0  0  0  0  0  0  0
    1.3169    1.9559   -1.5576 C   0  0  0  0  0  0  0  0  0  0  0  0
    2.3627    2.5295   -5.5480 O   0  0  0  0  0  0  0  0  0  0  0  0
    1.3926    2.8387   -6.5811 C   0  0  0  0  0  0  0  0  0  0  0  0
    0.6859    2.0108   -6.6901 H   0  0  0  0  0  0  0  0  0  0  0  0
    0.8656    3.7683   -6.3359 H   0  0  0  0  0  0  0  0  0  0  0  0
    2.0322    2.9525   -7.4627 H   0  0  0  0  0  0  0  0  0  0  0  0
   -0.3838    2.8516   -4.7193 O   0  0  0  0  0  0  0  0  0  0  0  0
   -1.6969    2.2586   -4.5347 C   0  0  0  0  0  0  0  0  0  0  0  0
   -1.6179    1.1822   -4.3419 H   0  0  0  0  0  0  0  0  0  0  0  0
   -2.2136    2.7651   -3.7153 H   0  0  0  0  0  0  0  0  0  0  0  0
   -2.1790    2.4621   -5.4961 H   0  0  0  0  0  0  0  0  0  0  0  0
   -1.5124    3.1805    1.9839 C   0  0  0  0  0  0  0  0  0  0  0  0
   -1.4125    4.2545    2.1780 H   0  0  0  0  0  0  0  0  0  0  0  0
   -2.1023    2.7537    2.8060 H   0  0  0  0  0  0  0  0  0  0  0  0
   -2.1047    3.0662    1.0662 H   0  0  0  0  0  0  0  0  0  0  0  0
    0.6509    2.7304    3.1601 C   0  0  0  0  0  0  0  0  0  0  0  0
    0.8521    3.7930    3.3320 H   0  0  0  0  0  0  0  0  0  0  0  0
    1.6173    2.2066    3.1385 H   0  0  0  0  0  0  0  0  0  0  0  0
    0.1016    2.3576    4.0348 H   0  0  0  0  0  0  0  0  0  0  0  0
   -1.0705    0.2077    2.4521 C   0  0  0  0  0  0  0  0  0  0  0  0
   -2.4617    0.0560    2.2372 C   0  0  0  0  0  0  0  0  0  0  0  0
   -0.4454   -0.3953    3.5740 C   0  0  0  0  0  0  0  0  0  0  0  0
   -3.2239   -0.6118    3.2090 C   0  0  0  0  0  0  0  0  0  0  0  0
   -2.6265   -1.1509    4.3464 C   0  0  0  0  0  0  0  0  0  0  0  0
   -4.2989   -0.7182    3.0626 H   0  0  0  0  0  0  0  0  0  0  0  0
   -1.2446   -1.0619    4.5132 C   0  0  0  0  0  0  0  0  0  0  0  0
   -0.7774   -1.5245    5.3828 H   0  0  0  0  0  0  0  0  0  0  0  0
   -3.2345   -1.6564    5.0954 H   0  0  0  0  0  0  0  0  0  0  0  0
   -3.1610    0.5217    0.9703 C   0  0  0  0  0  0  0  0  0  0  0  0
   -2.4405    1.1025    0.3329 H   0  0  0  0  0  0  0  0  0  0  0  0
   -4.3644    1.4199    1.2905 C   0  0  0  0  0  0  0  0  0  0  0  0
   -5.1916    0.8515    1.7309 H   0  0  0  0  0  0  0  0  0  0  0  0
   -4.7494    1.8888    0.3779 H   0  0  0  0  0  0  0  0  0  0  0  0
   -4.1068    2.2158    1.9958 H   0  0  0  0  0  0  0  0  0  0  0  0
   -3.5999   -0.7000    0.1519 C   0  0  0  0  0  0  0  0  0  0  0  0
   -2.7434   -1.3631   -0.0581 H   0  0  0  0  0  0  0  0  0  0  0  0
   -3.9864   -0.3938   -0.8282 H   0  0  0  0  0  0  0  0  0  0  0  0
   -4.3684   -1.2926    0.6532 H   0  0  0  0  0  0  0  0  0  0  0  0
    1.0638   -0.4141    3.7609 C   0  0  0  0  0  0  0  0  0  0  0  0
    1.5399    0.3543    3.0939 H   0  0  0  0  0  0  0  0  0  0  0  0
    1.6016   -1.7852    3.3350 C   0  0  0  0  0  0  0  0  0  0  0  0
    1.1628   -2.6050    3.9105 H   0  0  0  0  0  0  0  0  0  0  0  0
    2.6900   -1.8414    3.4501 H   0  0  0  0  0  0  0  0  0  0  0  0
    1.3928   -1.9766    2.2666 H   0  0  0  0  0  0  0  0  0  0  0  0
    1.4668   -0.0807    5.2036 C   0  0  0  0  0  0  0  0  0  0  0  0
    0.9971    0.8453    5.5507 H   0  0  0  0  0  0  0  0  0  0  0  0
    2.5528    0.0427    5.2849 H   0  0  0  0  0  0  0  0  0  0  0  0
    1.1837   -0.8759    5.9029 H   0  0  0  0  0  0  0  0  0  0  0  0
  2  1  1  0  0  0  0
  3  1  2  0  0  0  0
  4  3  1  0  0  0  0
  5  2  1  0  0  0  0
  6  5  1  0  0  0  0
  7  5  1  0  0  0  0
  8  7  1  0  0  0  0
  9  7  1  0  0  0  0
 10  7  1  0  0  0  0
 11  5  1  0  0  0  0
 12 11  1  0  0  0  0
 13 11  1  0  0  0  0
 14 11  1  0  0  0  0
 15  2  1  0  0  0  0
 15 24  1  0  0  0  0
 16 15  2  0  0  0  0
 17 16  1  0  0  0  0
 18 16  1  0  0  0  0
 19 18  1  0  0  0  0
 20 18  2  0  0  0  0
 21 20  1  0  0  0  0
 22 20  1  0  0  0  0
 22 24  2  0  0  0  0
 23 22  1  0  0  0  0
 24  3  1  0  0  0  0
  1 25  1  0  0  0  0
  1 26  1  0  0  0  0
 27 28  1  0  0  0  0
 27 33  1  0  0  0  0
 28 29  1  0  0  0  0
 29 30  1  0  0  0  0
 29 31  1  0  0  0  0
 29 32  1  0  0  0  0
 32 33  1  0  0  0  0
 32 34  1  0  0  0  0
 32 47  1  0  0  0  0
 34 35  1  0  0  0  0
 34 36  1  0  0  0  0
 34 37  1  0  0  0  0
 37 38  1  0  0  0  0
 37 39  1  0  0  0  0
 37 40  1  0  0  0  0
 40 41  2  0  0  0  0
 40 47  2  0  0  0  0
 41 42  1  0  0  0  0
 41 43  2  0  0  0  0
 43 44  2  0  0  0  0
 43 48  1  0  0  0  0
 44 45  2  0  0  0  0
 44 53  1  0  0  0  0
 45 46  1  0  0  0  0
 45 47  2  0  0  0  0
 48 49  1  0  0  0  0
 49 50  1  0  0  0  0
 49 51  1  0  0  0  0
 49 52  1  0  0  0  0
 53 54  1  0  0  0  0
 54 55  1  0  0  0  0
 54 56  1  0  0  0  0
 54 57  1  0  0  0  0
 58 59  1  0  0  0  0
 58 60  1  0  0  0  0
 58 61  1  0  0  0  0
 28 58  1  0  0  0  0
 62 63  1  0  0  0  0
 62 64  1  0  0  0  0
 62 65  1  0  0  0  0
 28 62  1  0  0  0  0
 66 67  1  0  0  0  0
 66 68  2  0  0  0  0
 67 69  2  0  0  0  0
 69 70  1  0  0  0  0
 69 71  1  0  0  0  0
 70 72  2  0  0  0  0
 72 73  1  0  0  0  0
 68 72  1  0  0  0  0
 27 66  1  0  0  0  0
 70 74  1  0  0  0  0
 75 76  1  0  0  0  0
 75 77  1  0  0  0  0
 77 78  1  0  0  0  0
 77 79  1  0  0  0  0
 77 80  1  0  0  0  0
 75 81  1  0  0  0  0
 81 82  1  0  0  0  0
 81 83  1  0  0  0  0
 81 84  1  0  0  0  0
 67 75  1  0  0  0  0
 85 86  1  0  0  0  0
 85 87  1  0  0  0  0
 87 88  1  0  0  0  0
 87 89  1  0  0  0  0
 87 90  1  0  0  0  0
 85 91  1  0  0  0  0
 91 92  1  0  0  0  0
 91 93  1  0  0  0  0
 91 94  1  0  0  0  0
 68 85  1  0  0  0  0
  1 33  1  0  0  0  0
M  END
> <FrozenCore-PM6_ENERGY>
-314.408

> <RMSD_CONF_CG-CS>
0.402289

> <RMSD_CONF_GO-CS>
0.000000

> <UID>


> <DESCRIPTOR_DEFINITION_1>
desc1=( echo "1 * ( e( $hartree_to_kcalmol * ( ( $freeEnergyZ - $freeEnergyD ) - ( $freeEnergyX + 2*$G_Ethene - $freeEnergyD - 2*$G_Propene ) - $DDG_reference_HGII ) / $kT ) ) " | bc -l )

> <DESCRIPTOR_DEFINITION_2>
desc1=( echo "1 * ( e( $hartree_to_kcalmol * ( ( $freeEnergyZ - $freeEnergyD ) - ( $freeEnergyX + 2*$G_Ethene - $freeEnergyD - 2*$G_Propene ) - $DDG_reference_HGII ) / $kT ) ) " | bc -l )

> <DESCRIPTOR_DEFINITION_3>
desc1=( echo "1 * ( e( $hartree_to_kcalmol * ( ( $freeEnergyZ - $freeEnergyD ) - ( $freeEnergyX + 2*$G_Ethene - $freeEnergyD - 2*$G_Propene ) - $DDG_reference_HGII ) / $kT ) ) " | bc -l )

> <WEIGHT_DEFINITION_1>
w1=$( echo "1 / ( 1 + e( $hartree_to_kcalmol * ( ( ( $freeEnergyX + 2*$G_Ethene - $freeEnergyD - 2*$G_Propene ) ) - ( $DG_referenceProductionBarrier + $magnitude4 ) ) / $kT ) )" | bc -l )

> <WEIGHT_DEFINITION_2>
w1=$( echo "1 / ( 1 + e( $hartree_to_kcalmol * ( ( ( $freeEnergyX + 2*$G_Ethene - $freeEnergyD - 2*$G_Propene ) ) - ( $DG_referenceProductionBarrier + $magnitude4 ) ) / $kT ) )" | bc -l )

> <WEIGHT_DEFINITION_3>
w1=$( echo "1 / ( 1 + e( $hartree_to_kcalmol * ( ( ( $freeEnergyX + 2*$G_Ethene - $freeEnergyD - 2*$G_Propene ) ) - ( $DG_referenceProductionBarrier + $magnitude4 ) ) / $kT ) )" | bc -l )

> <WEIGHT_DEFINITION_4>
w1=$( echo "1 / ( 1 + e( $hartree_to_kcalmol * ( ( ( $freeEnergyX + 2*$G_Ethene - $freeEnergyD - 2*$G_Propene ) ) - ( $DG_referenceProductionBarrier + $magnitude4 ) ) / $kT ) )" | bc -l )

> <CALCULATION_OF_OVERALL_FITNESS>
fitness=$( echo "( $desc1 + $desc2 + $desc3 ) * ( $w1 * $w2 * $w3 * $w4 )" | bc -l )

> <freeEnergyA>
-2770.75021708

> <freeEnergyF>
-2770.72167302

> <freeEnergyE>
-2770.75021708

> <freeEnergyC>
-2425.48672542

> <freeEnergyL>
-1292.86832706

> <freeEnergyX>
-2504.01756073

> <freeEnergyZ>
-2425.45749025

> <freeEnergyD>
-2425.51450237

> <G_Propene>
-117.738020895

> <G_Ethene>
-78.4716324751

> <G_HoveydaProd>
-502.204109499

> <G_SIMes>
-924.27249048

> <G_HG_RuCl2_SIMes>
-2402.13728523

> <DG_referenceProductionBarrier>
0.01468968

> <DG_referencePrecursorStabilityHII>
-0.0052201621

> <DG_referencePrecursorStabilityHI>
0.0117775312

> <DDG_referencePrecursorStability>
.0169976933

> <DG_referenceSynt>
0.0226072217

> <hartree_to_kcalmol>
627.49467516

> <boltzmann_constant>
0.0000000000000000000000138066

> <avogadro_number>
602214000000000000000000

> <jmol_to_kcalmol>
0.00023901

> <temp>
313.15

> <kT>
.6223089948281258706000000000

> <magnitude1>
1.43290809

> <magnitude2>
2.86581618

> <magnitude3>
4.29872427

> <magnitude4>
5.73163236

> <DFT_IDENTIFIER>
1722715354292

> <DFT_MACHINE>
158.36.42.38

> <XTB_IDENTIFIER>
NREC

> <XTB_MACHINE>
NREC

> <DESCRIPTOR_1>
164.76700399330892995044

> <DESCRIPTOR_2>
17.126613891232917432

> <DESCRIPTOR_3>
0.0000000001

> <WEIGHT_1>
.84568572227399159450

> <WEIGHT_2>
.99998996147555786149

> <WEIGHT_3>
.99999999999999999959

> <WEIGHT_4>
.99999999996836581957

> <FITNESS>
153.82329143856454473630

$$$$
