
  CDK     08032404443D

 86 90  0  0  0  0  0  0  0  0999 V2000
    1.5796    0.1729    3.4954 C   0  0  0  0  0  0  0  0  0  0  0  0
    1.8482   -0.8968    3.5352 H   0  0  0  0  0  0  0  0  0  0  0  0
    2.0706    0.7150    4.3342 H   0  0  0  0  0  0  0  0  0  0  0  0
    1.9961    0.5979    2.5581 H   0  0  0  0  0  0  0  0  0  0  0  0
    0.0869    0.3931    3.5912 C   0  0  0  0  0  0  0  0  0  0  0  0
   -0.2288    1.4512    3.6560 H   0  0  0  0  0  0  0  0  0  0  0  0
   -0.8299   -0.5299    4.1781 C   0  0  0  0  0  0  0  0  0  0  0  0
   -0.4494   -1.5477    4.3711 H   0  0  0  0  0  0  0  0  0  0  0  0
   -1.9708   -0.0240    5.0283 C   0  0  0  0  0  0  0  0  0  0  0  0
   -2.7359   -0.7996    5.2199 H   0  0  0  0  0  0  0  0  0  0  0  0
   -1.5639    0.2966    6.0117 H   0  0  0  0  0  0  0  0  0  0  0  0
   -2.4499    0.8552    4.5539 H   0  0  0  0  0  0  0  0  0  0  0  0
   -2.2220   -1.2799    2.4795 C   0  0  0  0  0  0  0  0  0  0  0  0
   -3.1706   -0.7809    2.7593 H   0  0  0  0  0  0  0  0  0  0  0  0
   -2.1537   -2.3817    2.5954 H   0  0  0  0  0  0  0  0  0  0  0  0
   -0.8084   -0.3446    1.7619 Ru  0  0  0  0  0  0  0  0  0  0  0  0
   -2.1538    1.6632    1.9184 Cl  0  0  0  0  0  0  0  0  0  0  0  0
    0.4280   -2.3992    1.8871 Cl  0  0  0  0  0  0  0  0  0  0  0  0
   -1.5809   -0.4722   -1.1532 N   0  0  0  0  0  0  0  0  0  0  0  0
   -1.3646    0.2911   -2.4622 C   0  0  0  0  0  0  0  0  0  0  0  0
    0.1212    0.6484   -2.2961 C   0  0  0  0  0  0  0  0  0  0  0  0
    0.4159    1.5309   -2.8947 H   0  0  0  0  0  0  0  0  0  0  0  0
    0.7430   -0.2107   -2.6195 H   0  0  0  0  0  0  0  0  0  0  0  0
    0.3161    0.8807   -0.7744 C   0  0  0  0  0  0  0  0  0  0  0  0
   -0.7598   -0.0546   -0.1766 C   0  0  0  0  0  0  0  0  0  0  0  0
    0.2023    2.3880   -0.3536 C   0  0  0  0  0  0  0  0  0  0  0  0
   -0.2865    2.4485    0.6360 H   0  0  0  0  0  0  0  0  0  0  0  0
   -0.4250    2.9649   -1.0562 H   0  0  0  0  0  0  0  0  0  0  0  0
    1.6460    2.9268   -0.2701 C   0  0  0  0  0  0  0  0  0  0  0  0
    1.7524    3.7086    0.5086 H   0  0  0  0  0  0  0  0  0  0  0  0
    1.9691    3.3885   -1.2301 H   0  0  0  0  0  0  0  0  0  0  0  0
    2.4594    1.6895    0.0060 C   0  0  0  0  0  0  0  0  0  0  0  0
    3.7808    1.5725    0.4606 C   0  0  0  0  0  0  0  0  0  0  0  0
    4.3900    2.4490    0.7243 H   0  0  0  0  0  0  0  0  0  0  0  0
    4.3674    0.3062    0.5914 C   0  0  0  0  0  0  0  0  0  0  0  0
    3.6316   -0.8623    0.2328 C   0  0  0  0  0  0  0  0  0  0  0  0
    2.3042   -0.7413   -0.2138 C   0  0  0  0  0  0  0  0  0  0  0  0
    1.7112   -1.6335   -0.4430 H   0  0  0  0  0  0  0  0  0  0  0  0
    1.7241    0.5333   -0.2991 C   0  0  0  0  0  0  0  0  0  0  0  0
    5.6769    0.2347    1.0115 O   0  0  0  0  0  0  0  0  0  0  0  0
    5.8739   -0.4476    2.2589 C   0  0  0  0  0  0  0  0  0  0  0  0
    5.3071    0.0533    3.0760 H   0  0  0  0  0  0  0  0  0  0  0  0
    5.5688   -1.5118    2.1986 H   0  0  0  0  0  0  0  0  0  0  0  0
    6.9570   -0.3812    2.4740 H   0  0  0  0  0  0  0  0  0  0  0  0
    4.3027   -2.0482    0.3578 O   0  0  0  0  0  0  0  0  0  0  0  0
    3.5815   -3.2348    0.0190 C   0  0  0  0  0  0  0  0  0  0  0  0
    2.6690   -3.3444    0.6417 H   0  0  0  0  0  0  0  0  0  0  0  0
    3.2935   -3.2363   -1.0560 H   0  0  0  0  0  0  0  0  0  0  0  0
    4.2773   -4.0712    0.2105 H   0  0  0  0  0  0  0  0  0  0  0  0
   -1.6503   -0.5535   -3.6985 C   0  0  0  0  0  0  0  0  0  0  0  0
   -1.6036    0.0975   -4.5933 H   0  0  0  0  0  0  0  0  0  0  0  0
   -2.6655   -0.9960   -3.6564 H   0  0  0  0  0  0  0  0  0  0  0  0
   -0.9140   -1.3639   -3.8318 H   0  0  0  0  0  0  0  0  0  0  0  0
   -2.2519    1.5495   -2.4960 C   0  0  0  0  0  0  0  0  0  0  0  0
   -1.8890    2.2241   -3.2971 H   0  0  0  0  0  0  0  0  0  0  0  0
   -2.2305    2.0987   -1.5376 H   0  0  0  0  0  0  0  0  0  0  0  0
   -3.3012    1.2950   -2.7250 H   0  0  0  0  0  0  0  0  0  0  0  0
   -2.5455   -1.5424   -0.9397 C   0  0  0  0  0  0  0  0  0  0  0  0
   -2.1217   -2.8825   -1.1683 C   0  0  0  0  0  0  0  0  0  0  0  0
   -3.8464   -1.2610   -0.4361 C   0  0  0  0  0  0  0  0  0  0  0  0
   -2.9919   -3.9260   -0.8011 C   0  0  0  0  0  0  0  0  0  0  0  0
   -4.2456   -3.6696   -0.2440 C   0  0  0  0  0  0  0  0  0  0  0  0
   -2.6690   -4.9651   -0.9562 H   0  0  0  0  0  0  0  0  0  0  0  0
   -4.6698   -2.3480   -0.0870 C   0  0  0  0  0  0  0  0  0  0  0  0
   -5.6719   -2.1445    0.3150 H   0  0  0  0  0  0  0  0  0  0  0  0
   -4.9024   -4.5012    0.0501 H   0  0  0  0  0  0  0  0  0  0  0  0
   -0.8146   -3.2701   -1.8542 C   0  0  0  0  0  0  0  0  0  0  0  0
   -0.2233   -2.3455   -2.0094 H   0  0  0  0  0  0  0  0  0  0  0  0
   -1.1100   -3.9120   -3.2268 C   0  0  0  0  0  0  0  0  0  0  0  0
   -1.5879   -4.9039   -3.0922 H   0  0  0  0  0  0  0  0  0  0  0  0
   -0.1677   -4.0719   -3.7902 H   0  0  0  0  0  0  0  0  0  0  0  0
   -1.7904   -3.3021   -3.8501 H   0  0  0  0  0  0  0  0  0  0  0  0
    0.0422   -4.2376   -1.0232 C   0  0  0  0  0  0  0  0  0  0  0  0
    0.2619   -3.8191   -0.0236 H   0  0  0  0  0  0  0  0  0  0  0  0
    0.9962   -4.4423   -1.5519 H   0  0  0  0  0  0  0  0  0  0  0  0
   -0.4702   -5.2125   -0.8881 H   0  0  0  0  0  0  0  0  0  0  0  0
   -4.4383    0.1396   -0.3595 C   0  0  0  0  0  0  0  0  0  0  0  0
   -3.6067    0.8664   -0.3992 H   0  0  0  0  0  0  0  0  0  0  0  0
   -5.2191    0.4277    0.9307 C   0  0  0  0  0  0  0  0  0  0  0  0
   -5.5852    1.4738    0.9137 H   0  0  0  0  0  0  0  0  0  0  0  0
   -4.5759    0.3274    1.8229 H   0  0  0  0  0  0  0  0  0  0  0  0
   -6.1062   -0.2295    1.0398 H   0  0  0  0  0  0  0  0  0  0  0  0
   -5.3717    0.3445   -1.5720 C   0  0  0  0  0  0  0  0  0  0  0  0
   -4.8868    0.0706   -2.5302 H   0  0  0  0  0  0  0  0  0  0  0  0
   -5.7072    1.3998   -1.6381 H   0  0  0  0  0  0  0  0  0  0  0  0
   -6.2744   -0.2940   -1.4752 H   0  0  0  0  0  0  0  0  0  0  0  0
  1  2  1  0  0  0  0
  1  5  1  0  0  0  0
  1  3  1  0  0  0  0
  1  4  1  0  0  0  0
  5  6  1  0  0  0  0
  5 16  1  0  0  0  0
  5  7  1  0  0  0  0
  7  9  1  0  0  0  0
  7  8  1  0  0  0  0
  9 10  1  0  0  0  0
  9 11  1  0  0  0  0
  9 12  1  0  0  0  0
 13 14  1  0  0  0  0
 13 15  1  0  0  0  0
  7 13  1  0  0  0  0
 13 16  1  0  0  0  0
 16 17  1  0  0  0  0
 16 18  1  0  0  0  0
 19 20  1  0  0  0  0
 19 25  1  0  0  0  0
 20 21  1  0  0  0  0
 21 22  1  0  0  0  0
 21 23  1  0  0  0  0
 21 24  1  0  0  0  0
 24 25  1  0  0  0  0
 24 26  1  0  0  0  0
 24 39  1  0  0  0  0
 26 27  1  0  0  0  0
 26 28  1  0  0  0  0
 26 29  1  0  0  0  0
 29 30  1  0  0  0  0
 29 31  1  0  0  0  0
 29 32  1  0  0  0  0
 32 33  2  0  0  0  0
 32 39  2  0  0  0  0
 33 34  1  0  0  0  0
 33 35  2  0  0  0  0
 35 36  2  0  0  0  0
 35 40  1  0  0  0  0
 36 37  2  0  0  0  0
 36 45  1  0  0  0  0
 37 38  1  0  0  0  0
 37 39  2  0  0  0  0
 40 41  1  0  0  0  0
 41 42  1  0  0  0  0
 41 43  1  0  0  0  0
 41 44  1  0  0  0  0
 45 46  1  0  0  0  0
 46 47  1  0  0  0  0
 46 48  1  0  0  0  0
 46 49  1  0  0  0  0
 50 51  1  0  0  0  0
 50 52  1  0  0  0  0
 50 53  1  0  0  0  0
 20 50  1  0  0  0  0
 54 55  1  0  0  0  0
 54 56  1  0  0  0  0
 54 57  1  0  0  0  0
 20 54  1  0  0  0  0
 58 59  1  0  0  0  0
 58 60  2  0  0  0  0
 59 61  2  0  0  0  0
 61 62  1  0  0  0  0
 61 63  1  0  0  0  0
 62 64  2  0  0  0  0
 64 65  1  0  0  0  0
 60 64  1  0  0  0  0
 19 58  1  0  0  0  0
 62 66  1  0  0  0  0
 67 68  1  0  0  0  0
 67 69  1  0  0  0  0
 69 70  1  0  0  0  0
 69 71  1  0  0  0  0
 69 72  1  0  0  0  0
 67 73  1  0  0  0  0
 73 74  1  0  0  0  0
 73 75  1  0  0  0  0
 73 76  1  0  0  0  0
 59 67  1  0  0  0  0
 77 78  1  0  0  0  0
 77 79  1  0  0  0  0
 79 80  1  0  0  0  0
 79 81  1  0  0  0  0
 79 82  1  0  0  0  0
 77 83  1  0  0  0  0
 83 84  1  0  0  0  0
 83 85  1  0  0  0  0
 83 86  1  0  0  0  0
 60 77  1  0  0  0  0
 16 25  1  0  0  0  0
M  END
>  <DFT-ENERGY>
-2504.01756064

$$$$
