
  CDK     02052416233D

 71 74  0  0  0  0  0  0  0  0999 V2000
   -0.9490   -4.0465   -2.1901 C   0  0  0  0  0  0  0  0  0  0  0  0
    0.1139   -4.1158   -2.4795 H   0  0  0  0  0  0  0  0  0  0  0  0
   -1.4997   -4.9405   -2.5584 H   0  0  0  0  0  0  0  0  0  0  0  0
   -1.3878   -3.1710   -2.7141 H   0  0  0  0  0  0  0  0  0  0  0  0
   -1.1294   -3.9501   -0.6921 C   0  0  0  0  0  0  0  0  0  0  0  0
   -2.1770   -3.9707   -0.3383 H   0  0  0  0  0  0  0  0  0  0  0  0
   -0.1749   -4.4253    0.2548 C   0  0  0  0  0  0  0  0  0  0  0  0
    0.8283   -4.6681   -0.1365 H   0  0  0  0  0  0  0  0  0  0  0  0
   -0.6370   -5.1249    1.5107 C   0  0  0  0  0  0  0  0  0  0  0  0
    0.1670   -5.2225    2.2643 H   0  0  0  0  0  0  0  0  0  0  0  0
   -0.9706   -6.1504    1.2412 H   0  0  0  0  0  0  0  0  0  0  0  0
   -1.4987   -4.5918    1.9590 H   0  0  0  0  0  0  0  0  0  0  0  0
    0.6388   -2.5765    1.3974 C   0  0  0  0  0  0  0  0  0  0  0  0
    0.1665   -2.7226    2.3902 H   0  0  0  0  0  0  0  0  0  0  0  0
    1.7360   -2.7187    1.3070 H   0  0  0  0  0  0  0  0  0  0  0  0
   -0.3561   -2.0285   -0.0488 Ru  0  0  0  0  0  0  0  0  0  0  0  0
   -2.3245   -2.0131    1.3584 Cl  0  0  0  0  0  0  0  0  0  0  0  0
    1.6565   -2.2806   -1.3511 Cl  0  0  0  0  0  0  0  0  0  0  0  0
   -0.5839   -0.0841   -0.2527 C   0  0  0  0  0  0  0  0  0  0  0  0
   -1.6128    0.5788   -1.2020 C   0  0  0  0  0  0  0  0  0  0  0  0
   -1.9452    1.8597   -0.3949 C   0  0  0  0  0  0  0  0  0  0  0  0
   -2.3405    2.6798   -1.0207 H   0  0  0  0  0  0  0  0  0  0  0  0
   -2.7088    1.6041    0.3670 H   0  0  0  0  0  0  0  0  0  0  0  0
   -0.6393    2.2556    0.3148 C   0  0  0  0  0  0  0  0  0  0  0  0
   -0.0362    0.8709    0.5107 N   0  0  0  0  0  0  0  0  0  0  0  0
   -2.8575   -0.2935   -1.4519 C   0  0  0  0  0  0  0  0  0  0  0  0
   -3.3403   -0.5886   -0.5027 H   0  0  0  0  0  0  0  0  0  0  0  0
   -2.5812   -1.2190   -1.9979 H   0  0  0  0  0  0  0  0  0  0  0  0
   -3.5748    0.2597   -2.0895 H   0  0  0  0  0  0  0  0  0  0  0  0
   -0.9933    0.9155   -2.5728 C   0  0  0  0  0  0  0  0  0  0  0  0
    0.1587    0.2712   -3.0570 C   0  0  0  0  0  0  0  0  0  0  0  0
    0.6680   -0.4908   -2.4489 H   0  0  0  0  0  0  0  0  0  0  0  0
    0.6727    0.5817   -4.3269 C   0  0  0  0  0  0  0  0  0  0  0  0
    1.5794    0.0651   -4.6749 H   0  0  0  0  0  0  0  0  0  0  0  0
    0.0405    1.5314   -5.1399 C   0  0  0  0  0  0  0  0  0  0  0  0
    0.4453    1.7759   -6.1327 H   0  0  0  0  0  0  0  0  0  0  0  0
   -1.1245    2.1626   -4.6752 C   0  0  0  0  0  0  0  0  0  0  0  0
   -1.6421    2.9014   -5.3047 H   0  0  0  0  0  0  0  0  0  0  0  0
   -1.6355    1.8554   -3.4072 C   0  0  0  0  0  0  0  0  0  0  0  0
   -2.5537    2.3584   -3.0690 H   0  0  0  0  0  0  0  0  0  0  0  0
    0.2777    3.1408   -0.5426 C   0  0  0  0  0  0  0  0  0  0  0  0
    0.4859    2.7010   -1.5338 H   0  0  0  0  0  0  0  0  0  0  0  0
    1.2366    3.3245   -0.0211 H   0  0  0  0  0  0  0  0  0  0  0  0
   -0.2133    4.1215   -0.6997 H   0  0  0  0  0  0  0  0  0  0  0  0
   -0.8939    2.9584    1.6485 C   0  0  0  0  0  0  0  0  0  0  0  0
   -1.3060    3.9660    1.4429 H   0  0  0  0  0  0  0  0  0  0  0  0
    0.0445    3.0875    2.2226 H   0  0  0  0  0  0  0  0  0  0  0  0
   -1.6229    2.4133    2.2731 H   0  0  0  0  0  0  0  0  0  0  0  0
    1.0583    0.6097    1.4233 C   0  0  0  0  0  0  0  0  0  0  0  0
    2.3851    0.6284    0.9202 C   0  0  0  0  0  0  0  0  0  0  0  0
    3.4312    0.3169    1.8094 C   0  0  0  0  0  0  0  0  0  0  0  0
    4.4630    0.3089    1.4293 H   0  0  0  0  0  0  0  0  0  0  0  0
    3.1802   -0.0100    3.1446 C   0  0  0  0  0  0  0  0  0  0  0  0
    4.0124   -0.2635    3.8176 H   0  0  0  0  0  0  0  0  0  0  0  0
    1.8641   -0.0337    3.6153 C   0  0  0  0  0  0  0  0  0  0  0  0
    1.6623   -0.3157    4.6592 H   0  0  0  0  0  0  0  0  0  0  0  0
    0.7769    0.2699    2.7737 C   0  0  0  0  0  0  0  0  0  0  0  0
    2.7315    0.8968   -0.5280 C   0  0  0  0  0  0  0  0  0  0  0  0
    1.8170    1.0925   -1.1112 H   0  0  0  0  0  0  0  0  0  0  0  0
    3.1358   -0.0482   -0.9472 H   0  0  0  0  0  0  0  0  0  0  0  0
    3.7390    2.0343   -0.7365 C   0  0  0  0  0  0  0  0  0  0  0  0
    3.9444    2.1734   -1.8168 H   0  0  0  0  0  0  0  0  0  0  0  0
    4.7080    1.8288   -0.2385 H   0  0  0  0  0  0  0  0  0  0  0  0
    3.3630    2.9982   -0.3361 H   0  0  0  0  0  0  0  0  0  0  0  0
   -0.6219    0.1506    3.3398 C   0  0  0  0  0  0  0  0  0  0  0  0
   -0.7998   -0.9170    3.5884 H   0  0  0  0  0  0  0  0  0  0  0  0
   -1.3724    0.3624    2.5591 H   0  0  0  0  0  0  0  0  0  0  0  0
   -0.8710    1.0027    4.5912 C   0  0  0  0  0  0  0  0  0  0  0  0
   -0.7208    2.0828    4.3926 H   0  0  0  0  0  0  0  0  0  0  0  0
   -0.1912    0.7261    5.4221 H   0  0  0  0  0  0  0  0  0  0  0  0
   -1.9091    0.8618    4.9529 H   0  0  0  0  0  0  0  0  0  0  0  0
  1  2  1  0  0  0  0
  1  5  1  0  0  0  0
  3  1  1  0  0  0  0
  4  1  1  0  0  0  0
  5  6  1  0  0  0  0
  5 16  1  0  0  0  0
  5  7  1  0  0  0  0
  7  9  1  0  0  0  0
  7  8  1  0  0  0  0
  9 10  1  0  0  0  0
 11  9  1  0  0  0  0
 12  9  1  0  0  0  0
 13 14  1  0  0  0  0
 13 15  1  0  0  0  0
 13  7  1  0  0  0  0
 16 13  1  0  0  0  0
 16 17  1  0  0  0  0
 16 18  1  0  0  0  0
 19 25  1  0  0  0  0
 20 21  1  0  0  0  0
 20 26  1  0  0  0  0
 20 30  1  0  0  0  0
 21 22  1  0  0  0  0
 21 23  1  0  0  0  0
 21 24  1  0  0  0  0
 24 25  1  0  0  0  0
 24 41  1  0  0  0  0
 24 45  1  0  0  0  0
 25 49  1  0  0  0  0
 26 27  1  0  0  0  0
 26 28  1  0  0  0  0
 26 29  1  0  0  0  0
 30 31  1  0  0  0  0
 30 39  2  0  0  0  0
 31 32  1  0  0  0  0
 31 33  2  0  0  0  0
 33 34  1  0  0  0  0
 33 35  1  0  0  0  0
 35 36  1  0  0  0  0
 35 37  2  0  0  0  0
 37 38  1  0  0  0  0
 37 39  1  0  0  0  0
 39 40  1  0  0  0  0
 41 42  1  0  0  0  0
 41 43  1  0  0  0  0
 41 44  1  0  0  0  0
 45 46  1  0  0  0  0
 45 47  1  0  0  0  0
 45 48  1  0  0  0  0
 49 50  1  0  0  0  0
 49 57  2  0  0  0  0
 50 51  2  0  0  0  0
 50 58  1  0  0  0  0
 51 52  1  0  0  0  0
 51 53  1  0  0  0  0
 53 54  1  0  0  0  0
 53 55  2  0  0  0  0
 55 56  1  0  0  0  0
 55 57  1  0  0  0  0
 57 65  1  0  0  0  0
 58 59  1  0  0  0  0
 58 60  1  0  0  0  0
 58 61  1  0  0  0  0
 61 62  1  0  0  0  0
 61 63  1  0  0  0  0
 61 64  1  0  0  0  0
 65 66  1  0  0  0  0
 65 67  1  0  0  0  0
 65 68  1  0  0  0  0
 68 69  1  0  0  0  0
 68 70  1  0  0  0  0
 68 71  1  0  0  0  0
 19 20  1  0  0  0  0
 16 19  1  0  0  0  0
M  END
>  <DFT-ENERGY>
-2158.61318093

$$$$
