
  CDK     02062408593D

 65 68  0  0  0  0  0  0  0  0999 V2000
   -1.9910    0.7893    1.1430 Ru  0  0  0  0  0  0  0  0  0  0  0  0
   -3.5898    1.9217    1.2997 C   0  0  0  0  0  0  0  0  0  0  0  0
   -3.4062    2.9581    1.6320 H   0  0  0  0  0  0  0  0  0  0  0  0
   -3.8046    0.9154    2.5096 C   0  0  0  0  0  0  0  0  0  0  0  0
   -3.8206    1.5356    3.4238 H   0  0  0  0  0  0  0  0  0  0  0  0
   -2.6850   -0.1716    2.7207 C   0  0  0  0  0  0  0  0  0  0  0  0
   -3.0171   -1.2042    2.5184 H   0  0  0  0  0  0  0  0  0  0  0  0
   -2.0938   -0.0210    3.6401 H   0  0  0  0  0  0  0  0  0  0  0  0
   -4.7442    0.3729    2.3011 H   0  0  0  0  0  0  0  0  0  0  0  0
   -4.3320    1.7881    0.4932 H   0  0  0  0  0  0  0  0  0  0  0  0
   -0.9418    2.3314    2.6639 Cl  0  0  0  0  0  0  0  0  0  0  0  0
   -3.3101   -0.7151   -0.1715 Cl  0  0  0  0  0  0  0  0  0  0  0  0
   -0.3688    0.8283    0.0596 C   0  0  0  0  0  0  0  0  0  0  0  0
    0.0877    1.9284   -0.9169 C   0  0  0  0  0  0  0  0  0  0  0  0
    1.6280    1.8019   -0.7436 C   0  0  0  0  0  0  0  0  0  0  0  0
    2.1923    2.1841   -1.6128 H   0  0  0  0  0  0  0  0  0  0  0  0
    1.9261    2.3860    0.1501 H   0  0  0  0  0  0  0  0  0  0  0  0
    1.9083    0.3088   -0.4858 C   0  0  0  0  0  0  0  0  0  0  0  0
    0.6175   -0.0541    0.2325 N   0  0  0  0  0  0  0  0  0  0  0  0
   -0.4329    3.3266   -0.5363 C   0  0  0  0  0  0  0  0  0  0  0  0
   -0.1854    3.5736    0.5127 H   0  0  0  0  0  0  0  0  0  0  0  0
   -1.5343    3.3694   -0.6482 H   0  0  0  0  0  0  0  0  0  0  0  0
    0.0058    4.0810   -1.2188 H   0  0  0  0  0  0  0  0  0  0  0  0
   -0.3524    1.6267   -2.3619 C   0  0  0  0  0  0  0  0  0  0  0  0
   -1.4302    0.7725   -2.6548 C   0  0  0  0  0  0  0  0  0  0  0  0
   -1.9853    0.2773   -1.8444 H   0  0  0  0  0  0  0  0  0  0  0  0
   -1.8212    0.5459   -3.9846 C   0  0  0  0  0  0  0  0  0  0  0  0
   -2.6637   -0.1324   -4.1838 H   0  0  0  0  0  0  0  0  0  0  0  0
   -1.1528    1.1768   -5.0421 C   0  0  0  0  0  0  0  0  0  0  0  0
   -1.4588    0.9971   -6.0829 H   0  0  0  0  0  0  0  0  0  0  0  0
   -0.0921    2.0514   -4.7573 C   0  0  0  0  0  0  0  0  0  0  0  0
    0.4348    2.5667   -5.5739 H   0  0  0  0  0  0  0  0  0  0  0  0
    0.3017    2.2745   -3.4311 C   0  0  0  0  0  0  0  0  0  0  0  0
    1.1306    2.9701   -3.2327 H   0  0  0  0  0  0  0  0  0  0  0  0
    2.0700   -0.5070   -1.7769 C   0  0  0  0  0  0  0  0  0  0  0  0
    1.2197   -0.3750   -2.4690 H   0  0  0  0  0  0  0  0  0  0  0  0
    2.1849   -1.5833   -1.5466 H   0  0  0  0  0  0  0  0  0  0  0  0
    2.9893   -0.1744   -2.2982 H   0  0  0  0  0  0  0  0  0  0  0  0
    3.1299    0.0799    0.4025 C   0  0  0  0  0  0  0  0  0  0  0  0
    4.0428    0.3090   -0.1815 H   0  0  0  0  0  0  0  0  0  0  0  0
    3.1945   -0.9773    0.7278 H   0  0  0  0  0  0  0  0  0  0  0  0
    3.1240    0.7278    1.2963 H   0  0  0  0  0  0  0  0  0  0  0  0
    0.3828   -1.2431    1.0351 C   0  0  0  0  0  0  0  0  0  0  0  0
   -0.2224   -2.3705    0.4168 C   0  0  0  0  0  0  0  0  0  0  0  0
   -0.5632   -3.4645    1.2325 C   0  0  0  0  0  0  0  0  0  0  0  0
   -1.0580   -4.3315    0.7713 H   0  0  0  0  0  0  0  0  0  0  0  0
   -0.3145   -3.4533    2.6078 C   0  0  0  0  0  0  0  0  0  0  0  0
   -0.6072   -4.3122    3.2291 H   0  0  0  0  0  0  0  0  0  0  0  0
    0.2979   -2.3413    3.1919 C   0  0  0  0  0  0  0  0  0  0  0  0
    0.4862   -2.3263    4.2755 H   0  0  0  0  0  0  0  0  0  0  0  0
    0.6624   -1.2154    2.4289 C   0  0  0  0  0  0  0  0  0  0  0  0
   -0.5517   -2.4543   -1.0566 C   0  0  0  0  0  0  0  0  0  0  0  0
   -0.3416   -1.4939   -1.5557 H   0  0  0  0  0  0  0  0  0  0  0  0
   -1.6494   -2.5883   -1.1410 H   0  0  0  0  0  0  0  0  0  0  0  0
    0.1709   -3.5980   -1.7816 C   0  0  0  0  0  0  0  0  0  0  0  0
   -0.1063   -3.6126   -2.8547 H   0  0  0  0  0  0  0  0  0  0  0  0
   -0.0927   -4.5866   -1.3544 H   0  0  0  0  0  0  0  0  0  0  0  0
    1.2739   -3.4991   -1.7165 H   0  0  0  0  0  0  0  0  0  0  0  0
    1.2967   -0.0480    3.1517 C   0  0  0  0  0  0  0  0  0  0  0  0
    0.5685    0.3281    3.8997 H   0  0  0  0  0  0  0  0  0  0  0  0
    1.4321    0.8044    2.4642 H   0  0  0  0  0  0  0  0  0  0  0  0
    2.6130   -0.4028    3.8574 C   0  0  0  0  0  0  0  0  0  0  0  0
    3.3795   -0.7686    3.1453 H   0  0  0  0  0  0  0  0  0  0  0  0
    2.4698   -1.1959    4.6185 H   0  0  0  0  0  0  0  0  0  0  0  0
    3.0241    0.4857    4.3772 H   0  0  0  0  0  0  0  0  0  0  0  0
  2  4  1  0  0  0  0
  2  1  1  0  0  0  0
  2  3  1  0  0  0  0
  4  6  1  0  0  0  0
  4  5  1  0  0  0  0
  6  1  1  0  0  0  0
  6  8  1  0  0  0  0
  7  6  1  0  0  0  0
  9  4  1  0  0  0  0
 10  2  1  0  0  0  0
  1 11  1  0  0  0  0
  1 12  1  0  0  0  0
 13 19  1  0  0  0  0
 14 15  1  0  0  0  0
 14 20  1  0  0  0  0
 14 24  1  0  0  0  0
 15 16  1  0  0  0  0
 15 17  1  0  0  0  0
 15 18  1  0  0  0  0
 18 19  1  0  0  0  0
 18 35  1  0  0  0  0
 18 39  1  0  0  0  0
 19 43  1  0  0  0  0
 20 21  1  0  0  0  0
 20 22  1  0  0  0  0
 20 23  1  0  0  0  0
 24 25  1  0  0  0  0
 24 33  2  0  0  0  0
 25 26  1  0  0  0  0
 25 27  2  0  0  0  0
 27 28  1  0  0  0  0
 27 29  1  0  0  0  0
 29 30  1  0  0  0  0
 29 31  2  0  0  0  0
 31 32  1  0  0  0  0
 31 33  1  0  0  0  0
 33 34  1  0  0  0  0
 35 36  1  0  0  0  0
 35 37  1  0  0  0  0
 35 38  1  0  0  0  0
 39 40  1  0  0  0  0
 39 41  1  0  0  0  0
 39 42  1  0  0  0  0
 43 44  1  0  0  0  0
 43 51  2  0  0  0  0
 44 45  2  0  0  0  0
 44 52  1  0  0  0  0
 45 46  1  0  0  0  0
 45 47  1  0  0  0  0
 47 48  1  0  0  0  0
 47 49  2  0  0  0  0
 49 50  1  0  0  0  0
 49 51  1  0  0  0  0
 51 59  1  0  0  0  0
 52 53  1  0  0  0  0
 52 54  1  0  0  0  0
 52 55  1  0  0  0  0
 55 56  1  0  0  0  0
 55 57  1  0  0  0  0
 55 58  1  0  0  0  0
 59 60  1  0  0  0  0
 59 61  1  0  0  0  0
 59 62  1  0  0  0  0
 62 63  1  0  0  0  0
 62 64  1  0  0  0  0
 62 65  1  0  0  0  0
 13 14  1  0  0  0  0
  1 13  1  0  0  0  0
M  END
>  <DFT-ENERGY>
-2080.10813522

$$$$
