QIDZOWMODN2_A2
  CDK     02052411033D

 79 83  0  0  0  0  0  0  0  0999 V2000
    1.0040    0.4447   -0.6060 Ru  0  0  0  0  0  0  0  0  0  0  0  0
    2.7818    0.4447   -1.9952 O   0  0  0  0  0  0  0  0  0  0  0  0
    2.2142    1.3780    0.3981 C   0  0  0  0  0  0  0  0  0  0  0  0
    1.9814    1.6709    1.4208 H   0  0  0  0  0  0  0  0  0  0  0  0
    3.0173   -0.3305   -3.2210 C   0  0  0  0  0  0  0  0  0  0  0  0
    3.4328    0.3661   -3.9796 H   0  0  0  0  0  0  0  0  0  0  0  0
    1.5945   -0.7653   -3.5450 C   0  0  0  0  0  0  0  0  0  0  0  0
    0.9182    0.1119   -3.5728 H   0  0  0  0  0  0  0  0  0  0  0  0
    1.5322   -1.2791   -4.5078 H   0  0  0  0  0  0  0  0  0  0  0  0
    1.1974   -1.4517   -2.7684 H   0  0  0  0  0  0  0  0  0  0  0  0
    3.9490   -1.4816   -2.8869 C   0  0  0  0  0  0  0  0  0  0  0  0
    3.9507   -2.2464   -3.6699 H   0  0  0  0  0  0  0  0  0  0  0  0
    4.9816   -1.1558   -2.7234 H   0  0  0  0  0  0  0  0  0  0  0  0
    3.6199   -1.9736   -1.9503 H   0  0  0  0  0  0  0  0  0  0  0  0
    3.7740    1.2431   -1.4902 C   0  0  0  0  0  0  0  0  0  0  0  0
    4.9431    1.5919   -2.1432 C   0  0  0  0  0  0  0  0  0  0  0  0
    5.1619    1.2414   -3.1491 H   0  0  0  0  0  0  0  0  0  0  0  0
    5.8443    2.4229   -1.4857 C   0  0  0  0  0  0  0  0  0  0  0  0
    6.7670    2.7104   -1.9943 H   0  0  0  0  0  0  0  0  0  0  0  0
    5.5943    2.8945   -0.2004 C   0  0  0  0  0  0  0  0  0  0  0  0
    6.3191    3.5392    0.2941 H   0  0  0  0  0  0  0  0  0  0  0  0
    4.4246    2.5342    0.4412 C   0  0  0  0  0  0  0  0  0  0  0  0
    4.2314    2.8888    1.4525 H   0  0  0  0  0  0  0  0  0  0  0  0
    3.4891    1.7188   -0.1982 C   0  0  0  0  0  0  0  0  0  0  0  0
    1.6004   -1.7354   -0.0488 Cl  0  0  0  0  0  0  0  0  0  0  0  0
    0.1788    2.1551   -1.9687 Cl  0  0  0  0  0  0  0  0  0  0  0  0
   -0.5527    0.4640    0.5465 C   0  0  0  0  0  0  0  0  0  0  0  0
   -0.9344    1.5179    1.6131 C   0  0  0  0  0  0  0  0  0  0  0  0
   -2.4720    1.3320    1.8183 C   0  0  0  0  0  0  0  0  0  0  0  0
   -2.7615    1.4500    2.8746 H   0  0  0  0  0  0  0  0  0  0  0  0
   -3.0299    2.1121    1.2714 H   0  0  0  0  0  0  0  0  0  0  0  0
   -2.8253   -0.0808    1.2851 C   0  0  0  0  0  0  0  0  0  0  0  0
   -1.6004   -0.4027    0.4274 N   0  0  0  0  0  0  0  0  0  0  0  0
   -0.6420    2.9176    1.0635 C   0  0  0  0  0  0  0  0  0  0  0  0
   -1.1910    3.1046    0.1268 H   0  0  0  0  0  0  0  0  0  0  0  0
    0.4234    3.0475    0.8092 H   0  0  0  0  0  0  0  0  0  0  0  0
   -0.9110    3.7060    1.7722 H   0  0  0  0  0  0  0  0  0  0  0  0
   -0.2229    1.2814    2.9408 C   0  0  0  0  0  0  0  0  0  0  0  0
    0.6295    0.1842    3.1332 C   0  0  0  0  0  0  0  0  0  0  0  0
    0.8482   -0.5063    2.3063 H   0  0  0  0  0  0  0  0  0  0  0  0
    1.2341   -0.0326    4.3755 C   0  0  0  0  0  0  0  0  0  0  0  0
    1.8946   -0.8890    4.5095 H   0  0  0  0  0  0  0  0  0  0  0  0
    0.9987    0.8439    5.4378 C   0  0  0  0  0  0  0  0  0  0  0  0
    1.4689    0.6728    6.4037 H   0  0  0  0  0  0  0  0  0  0  0  0
    0.1582    1.9462    5.2502 C   0  0  0  0  0  0  0  0  0  0  0  0
   -0.0234    2.6372    6.0717 H   0  0  0  0  0  0  0  0  0  0  0  0
   -0.4487    2.1639    4.0117 C   0  0  0  0  0  0  0  0  0  0  0  0
   -1.0995    3.0266    3.8770 H   0  0  0  0  0  0  0  0  0  0  0  0
   -2.9792   -1.0699    2.4402 C   0  0  0  0  0  0  0  0  0  0  0  0
   -2.0742   -1.1126    3.0623 H   0  0  0  0  0  0  0  0  0  0  0  0
   -3.1786   -2.0934    2.0829 H   0  0  0  0  0  0  0  0  0  0  0  0
   -3.8120   -0.7887    3.0936 H   0  0  0  0  0  0  0  0  0  0  0  0
   -4.0916   -0.0691    0.4264 C   0  0  0  0  0  0  0  0  0  0  0  0
   -4.9705    0.1966    1.0237 H   0  0  0  0  0  0  0  0  0  0  0  0
   -4.2848   -1.0525   -0.0230 H   0  0  0  0  0  0  0  0  0  0  0  0
   -4.0235    0.6496   -0.4007 H   0  0  0  0  0  0  0  0  0  0  0  0
   -1.6193   -1.5554   -0.4623 C   0  0  0  0  0  0  0  0  0  0  0  0
   -1.2928   -2.8508    0.0063 C   0  0  0  0  0  0  0  0  0  0  0  0
   -1.4397   -3.9419   -0.8698 C   0  0  0  0  0  0  0  0  0  0  0  0
   -1.1937   -4.9429   -0.5166 H   0  0  0  0  0  0  0  0  0  0  0  0
   -1.8705   -3.7602   -2.1809 C   0  0  0  0  0  0  0  0  0  0  0  0
   -1.9857   -4.6184   -2.8419 H   0  0  0  0  0  0  0  0  0  0  0  0
   -2.1344   -2.4746   -2.6547 C   0  0  0  0  0  0  0  0  0  0  0  0
   -2.4384   -2.3334   -3.6909 H   0  0  0  0  0  0  0  0  0  0  0  0
   -2.0051   -1.3598   -1.8146 C   0  0  0  0  0  0  0  0  0  0  0  0
   -0.7461   -3.1408    1.3794 C   0  0  0  0  0  0  0  0  0  0  0  0
   -0.5462   -2.2045    1.9403 H   0  0  0  0  0  0  0  0  0  0  0  0
    0.2609   -3.6088    1.2647 H   0  0  0  0  0  0  0  0  0  0  0  0
   -1.6473   -4.0742    2.1872 C   0  0  0  0  0  0  0  0  0  0  0  0
   -1.2619   -4.2070    3.2044 H   0  0  0  0  0  0  0  0  0  0  0  0
   -1.7185   -5.0678    1.7306 H   0  0  0  0  0  0  0  0  0  0  0  0
   -2.6699   -3.6750    2.2656 H   0  0  0  0  0  0  0  0  0  0  0  0
   -2.2224    0.0095   -2.4033 C   0  0  0  0  0  0  0  0  0  0  0  0
   -1.3608    0.2390   -3.0768 H   0  0  0  0  0  0  0  0  0  0  0  0
   -2.1696    0.8080   -1.6296 H   0  0  0  0  0  0  0  0  0  0  0  0
   -3.5349    0.1381   -3.1739 C   0  0  0  0  0  0  0  0  0  0  0  0
   -4.3936   -0.1698   -2.5668 H   0  0  0  0  0  0  0  0  0  0  0  0
   -3.5388   -0.4769   -4.0813 H   0  0  0  0  0  0  0  0  0  0  0  0
   -3.6993    1.1771   -3.4858 H   0  0  0  0  0  0  0  0  0  0  0  0
  2  1  1  0  0  0  0
  3  1  2  0  0  0  0
  4  3  1  0  0  0  0
  5  2  1  0  0  0  0
  6  5  1  0  0  0  0
  7  5  1  0  0  0  0
  8  7  1  0  0  0  0
  9  7  1  0  0  0  0
 10  7  1  0  0  0  0
 11  5  1  0  0  0  0
 12 11  1  0  0  0  0
 13 11  1  0  0  0  0
 14 11  1  0  0  0  0
 15  2  1  0  0  0  0
 15 24  1  0  0  0  0
 16 15  2  0  0  0  0
 17 16  1  0  0  0  0
 18 16  1  0  0  0  0
 19 18  1  0  0  0  0
 20 18  2  0  0  0  0
 21 20  1  0  0  0  0
 22 20  1  0  0  0  0
 22 24  2  0  0  0  0
 23 22  1  0  0  0  0
 24  3  1  0  0  0  0
  1 25  1  0  0  0  0
  1 26  1  0  0  0  0
 27 33  1  0  0  0  0
 28 29  1  0  0  0  0
 28 34  1  0  0  0  0
 28 38  1  0  0  0  0
 29 30  1  0  0  0  0
 29 31  1  0  0  0  0
 29 32  1  0  0  0  0
 32 33  1  0  0  0  0
 32 49  1  0  0  0  0
 32 53  1  0  0  0  0
 33 57  1  0  0  0  0
 34 35  1  0  0  0  0
 34 36  1  0  0  0  0
 34 37  1  0  0  0  0
 38 39  1  0  0  0  0
 38 47  2  0  0  0  0
 39 40  1  0  0  0  0
 39 41  2  0  0  0  0
 41 42  1  0  0  0  0
 41 43  1  0  0  0  0
 43 44  1  0  0  0  0
 43 45  2  0  0  0  0
 45 46  1  0  0  0  0
 45 47  1  0  0  0  0
 47 48  1  0  0  0  0
 49 50  1  0  0  0  0
 49 51  1  0  0  0  0
 49 52  1  0  0  0  0
 53 54  1  0  0  0  0
 53 55  1  0  0  0  0
 53 56  1  0  0  0  0
 57 58  1  0  0  0  0
 57 65  2  0  0  0  0
 58 59  2  0  0  0  0
 58 66  1  0  0  0  0
 59 60  1  0  0  0  0
 59 61  1  0  0  0  0
 61 62  1  0  0  0  0
 61 63  2  0  0  0  0
 63 64  1  0  0  0  0
 63 65  1  0  0  0  0
 65 73  1  0  0  0  0
 66 67  1  0  0  0  0
 66 68  1  0  0  0  0
 66 69  1  0  0  0  0
 69 70  1  0  0  0  0
 69 71  1  0  0  0  0
 69 72  1  0  0  0  0
 73 74  1  0  0  0  0
 73 75  1  0  0  0  0
 73 76  1  0  0  0  0
 76 77  1  0  0  0  0
 76 78  1  0  0  0  0
 76 79  1  0  0  0  0
 27 28  1  0  0  0  0
  1 27  1  0  0  0  0
M  END
> <FrozenCore-PM6_ENERGY>
24.993

> <RMSD_CONF_CG-CS>
1.095028

> <RMSD_CONF_GO-CS>
0.000000

> <UID>


> <freeEnergyA>
-2425.34041634

> <freeEnergyF>
-2425.31756486

> <freeEnergyE>
-2425.34041634

> <freeEnergyC>
-2080.08600449

> <freeEnergyL>
-947.467049147

> <freeEnergyX>
-2158.61318105

> <freeEnergyZ>
-2080.05563959

> <freeEnergyD>
-2080.10813513

> <G_Propene>
-117.738020895

> <G_Ethene>
-78.4716324751

> <G_HoveydaProd>
-502.204109499

> <G_SIMes>
-924.27249048

> <G_HG_RuCl2_SIMes>
-2402.13728523

> <DG_referenceProductionBarrier>
0.01468968

> <hartree_to_kcalmol>
627.49467516

> <DFT_IDENTIFIER>
1707210135818

> <DFT_MACHINE>
158.36.42.38

> <XTB_IDENTIFIER>
NREC

> <XTB_MACHINE>
NREC

> <DE_Synth>
-5.37916233561261588

> <DESCRIPTOR_DEFINITION_1>
desc1=( echo "1 * ( e( $hartree_to_kcalmol * ( ( $freeEnergyZ - $freeEnergyD ) - ( $freeEnergyX + 2*$G_Ethene - $freeEnergyD - 2*$G_Propene ) - $DDG_reference_HGII ) / $kT ) ) " | bc -l )

> <DESCRIPTOR_DEFINITION_2>
desc2=$( echo "1 * ( $hartree_to_kcalmol * ( ( $freeEnergyZ - $freeEnergyD ) - ( $freeEnergyX + 2*$G_Ethene - $freeEnergyD - 2*$G_Propene ) ) )" | bc -l )

> <DESCRIPTOR_DEFINITION_3>
desc3=$( echo "1 * $hartree_to_kcalmol * ( $DG_referenceProductionBarrier - ( $freeEnergyX + 2*$G_Ethene - $freeEnergyD - 2*$G_Propene ) )" | bc -l )

> <WEIGHT_DEFINITION_1>
w1=$( echo "1 / ( 1 + e( $hartree_to_kcalmol * ( ( ( $freeEnergyX + 2*$G_Ethene - $freeEnergyD - 2*$G_Propene ) ) - ( $DG_referenceProductionBarrier + $magnitude4 ) ) / $kT ) )" | bc -l )

> <WEIGHT_DEFINITION_2>
w2=$( echo "1 / ( 1 + e( $hartree_to_kcalmol * ( ABS( $freeEnergyC + $G_HoveydaProd - $freeEnergyA - 2*${G_Ethene} - $DG_referencePrecursorStabilityHII ) - ( $DDG_referencePrecursorStability + $magnitude1 ) ) / $kT ) )" | bc -l )

> <WEIGHT_DEFINITION_3>
w3=$( echo "1 / ( 1 + e( $hartree_to_kcalmol * ( ( $freeEnergyE + $G_PCy3 - $G_HI_precursor - $freeEnergyL ) - $magnitude1 ) / $kT ) )" | bc -l )

> <WEIGHT_DEFINITION_4>
w4=$( echo "1 / ( 1 + e( $hartree_to_kcalmol * ( - ( $freeEnergyF - $freeEnergyA ) + $magnitude2 ) / $kT ) )" | bc -l )

> <FITNESS_DEFINITION>
fitness=$( echo "( $desc1 + $desc2 + $desc3 ) * $w1 * $w2 * $w3 * $w4" | bc -l )

> <DESCRIPTOR_1>
12.86406980340817859028

> <DESCRIPTOR_2>
15.539667307859774232

> <DESCRIPTOR_3>
0.0000000001

> <WEIGHT_1>
.97599695545170770660

> <WEIGHT_2>
.99999998776861560132

> <WEIGHT_3>
.99999999999999778174

> <WEIGHT_4>
.99999999015957414575

> <FITNESS>
27.72196033227188483239

$$$$
