
  CDK     08192411313D

 61 64  0  0  0  0  0  0  0  0999 V2000
    1.2865   -0.7612   -0.1465 Ru  0  0  0  0  0  0  0  0  0  0  0  0
    2.9791   -0.5300   -1.1278 C   0  0  0  0  0  0  0  0  0  0  0  0
    2.9237   -0.6457   -2.2247 H   0  0  0  0  0  0  0  0  0  0  0  0
    3.2208   -1.8940   -0.3675 C   0  0  0  0  0  0  0  0  0  0  0  0
    3.3732   -2.6589   -1.1528 H   0  0  0  0  0  0  0  0  0  0  0  0
    2.0563   -2.4352    0.5531 C   0  0  0  0  0  0  0  0  0  0  0  0
    2.3152   -2.4393    1.6266 H   0  0  0  0  0  0  0  0  0  0  0  0
    1.6039   -3.3677    0.1699 H   0  0  0  0  0  0  0  0  0  0  0  0
    4.0859   -1.7247    0.3017 H   0  0  0  0  0  0  0  0  0  0  0  0
    3.6341    0.2842   -0.7683 H   0  0  0  0  0  0  0  0  0  0  0  0
    0.3482   -2.1306   -2.2751 I   0  0  0  0  0  0  0  0  0  0  0  0
    2.3803    0.5092    1.9698 I   0  0  0  0  0  0  0  0  0  0  0  0
   -0.8807    1.2139   -0.7973 N   0  0  0  0  0  0  0  0  0  0  0  0
   -1.3493    0.0722    1.0316 N   0  0  0  0  0  0  0  0  0  0  0  0
   -0.4360    0.2472    0.0442 C   0  0  0  0  0  0  0  0  0  0  0  0
   -2.1180    1.8485   -0.2981 C   0  0  0  0  0  0  0  0  0  0  0  0
   -2.8549    1.9546   -1.1156 H   0  0  0  0  0  0  0  0  0  0  0  0
   -1.8875    2.8604    0.1004 H   0  0  0  0  0  0  0  0  0  0  0  0
   -2.5707    0.8696    0.7958 C   0  0  0  0  0  0  0  0  0  0  0  0
   -2.8872    1.3762    1.7262 H   0  0  0  0  0  0  0  0  0  0  0  0
   -3.3953    0.2036    0.4606 H   0  0  0  0  0  0  0  0  0  0  0  0
   -0.2187    1.6351   -1.9984 C   0  0  0  0  0  0  0  0  0  0  0  0
    0.9092    2.4825   -1.9190 C   0  0  0  0  0  0  0  0  0  0  0  0
    1.5660    2.8151   -3.1192 C   0  0  0  0  0  0  0  0  0  0  0  0
    2.4527    3.4664   -3.0704 H   0  0  0  0  0  0  0  0  0  0  0  0
    1.1155    2.3582   -4.3671 C   0  0  0  0  0  0  0  0  0  0  0  0
   -0.0548    1.5775   -4.4082 C   0  0  0  0  0  0  0  0  0  0  0  0
   -0.4401    1.2312   -5.3797 H   0  0  0  0  0  0  0  0  0  0  0  0
   -0.7443    1.2118   -3.2437 C   0  0  0  0  0  0  0  0  0  0  0  0
    1.3962    3.0496   -0.6134 C   0  0  0  0  0  0  0  0  0  0  0  0
    0.5719    3.1954    0.1109 H   0  0  0  0  0  0  0  0  0  0  0  0
    1.8954    4.0237   -0.7765 H   0  0  0  0  0  0  0  0  0  0  0  0
    2.1190    2.3762   -0.1063 H   0  0  0  0  0  0  0  0  0  0  0  0
    1.8613    2.6887   -5.6351 C   0  0  0  0  0  0  0  0  0  0  0  0
    2.5847    3.5123   -5.4812 H   0  0  0  0  0  0  0  0  0  0  0  0
    1.1694    2.9818   -6.4501 H   0  0  0  0  0  0  0  0  0  0  0  0
    2.4309    1.8065   -5.9971 H   0  0  0  0  0  0  0  0  0  0  0  0
   -2.0221    0.4190   -3.3320 C   0  0  0  0  0  0  0  0  0  0  0  0
   -2.1165   -0.2960   -2.4936 H   0  0  0  0  0  0  0  0  0  0  0  0
   -2.0578   -0.1636   -4.2713 H   0  0  0  0  0  0  0  0  0  0  0  0
   -2.9080    1.0921   -3.3252 H   0  0  0  0  0  0  0  0  0  0  0  0
   -1.2001   -0.8104    2.1527 C   0  0  0  0  0  0  0  0  0  0  0  0
   -1.4029   -2.1986    1.9879 C   0  0  0  0  0  0  0  0  0  0  0  0
   -1.1846   -3.0306    3.1029 C   0  0  0  0  0  0  0  0  0  0  0  0
   -1.3291   -4.1160    2.9854 H   0  0  0  0  0  0  0  0  0  0  0  0
   -0.8086   -2.5179    4.3536 C   0  0  0  0  0  0  0  0  0  0  0  0
   -0.6864   -1.1227    4.4929 C   0  0  0  0  0  0  0  0  0  0  0  0
   -0.4158   -0.6985    5.4722 H   0  0  0  0  0  0  0  0  0  0  0  0
   -0.8849   -0.2492    3.4147 C   0  0  0  0  0  0  0  0  0  0  0  0
   -1.8648   -2.7933    0.6854 C   0  0  0  0  0  0  0  0  0  0  0  0
   -2.4914   -2.0898    0.1046 H   0  0  0  0  0  0  0  0  0  0  0  0
   -2.4487   -3.7160    0.8663 H   0  0  0  0  0  0  0  0  0  0  0  0
   -1.0163   -3.0522    0.0177 H   0  0  0  0  0  0  0  0  0  0  0  0
   -0.5390   -3.4305    5.5231 C   0  0  0  0  0  0  0  0  0  0  0  0
   -0.9007   -4.4588    5.3314 H   0  0  0  0  0  0  0  0  0  0  0  0
   -1.0231   -3.0594    6.4489 H   0  0  0  0  0  0  0  0  0  0  0  0
    0.5502   -3.4915    5.7313 H   0  0  0  0  0  0  0  0  0  0  0  0
   -0.7898    1.2410    3.6123 C   0  0  0  0  0  0  0  0  0  0  0  0
   -1.7951    1.6851    3.7854 H   0  0  0  0  0  0  0  0  0  0  0  0
   -0.3314    1.7380    2.7369 H   0  0  0  0  0  0  0  0  0  0  0  0
   -0.1671    1.4802    4.4942 H   0  0  0  0  0  0  0  0  0  0  0  0
  2  4  1  0  0  0  0
  2  1  1  0  0  0  0
  2  3  1  0  0  0  0
  4  6  1  0  0  0  0
  4  5  1  0  0  0  0
  6  1  1  0  0  0  0
  6  8  1  0  0  0  0
  7  6  1  0  0  0  0
  9  4  1  0  0  0  0
 10  2  1  0  0  0  0
  1 11  1  0  0  0  0
  1 12  1  0  0  0  0
 13 15  1  0  0  0  0
 14 15  1  0  0  0  0
 16 13  1  0  0  0  0
 16 19  1  0  0  0  0
 17 16  1  0  0  0  0
 18 16  1  0  0  0  0
 19 14  1  0  0  0  0
 20 19  1  0  0  0  0
 21 19  1  0  0  0  0
 23 22  2  0  0  0  0
 24 23  1  0  0  0  0
 25 24  1  0  0  0  0
 26 24  2  0  0  0  0
 27 26  1  0  0  0  0
 27 29  2  0  0  0  0
 28 27  1  0  0  0  0
 29 22  1  0  0  0  0
 13 22  1  0  0  0  0
 31 30  1  0  0  0  0
 32 30  1  0  0  0  0
 33 30  1  0  0  0  0
 23 30  1  0  0  0  0
 35 34  1  0  0  0  0
 36 34  1  0  0  0  0
 37 34  1  0  0  0  0
 26 34  1  0  0  0  0
 39 38  1  0  0  0  0
 40 38  1  0  0  0  0
 41 38  1  0  0  0  0
 29 38  1  0  0  0  0
 43 42  2  0  0  0  0
 44 43  1  0  0  0  0
 45 44  1  0  0  0  0
 46 44  2  0  0  0  0
 47 46  1  0  0  0  0
 47 49  2  0  0  0  0
 48 47  1  0  0  0  0
 49 42  1  0  0  0  0
 14 42  1  0  0  0  0
 51 50  1  0  0  0  0
 52 50  1  0  0  0  0
 53 50  1  0  0  0  0
 43 50  1  0  0  0  0
 55 54  1  0  0  0  0
 56 54  1  0  0  0  0
 57 54  1  0  0  0  0
 46 54  1  0  0  0  0
 59 58  1  0  0  0  0
 60 58  1  0  0  0  0
 61 58  1  0  0  0  0
 49 58  1  0  0  0  0
  1 15  1  0  0  0  0
M  END
>  <DFT-ENERGY>
-1728.27308502

$$$$
