QIDZOWMODN3_A2
  CDK     02052410403D

 79 83  0  0  0  0  0  0  0  0999 V2000
    0.9875    0.4457   -0.6683 Ru  0  0  0  0  0  0  0  0  0  0  0  0
    2.7653    0.4457   -2.0575 O   0  0  0  0  0  0  0  0  0  0  0  0
    2.1977    1.3790    0.3358 C   0  0  0  0  0  0  0  0  0  0  0  0
    1.9649    1.6719    1.3585 H   0  0  0  0  0  0  0  0  0  0  0  0
    3.0008   -0.3295   -3.2833 C   0  0  0  0  0  0  0  0  0  0  0  0
    3.4172    0.3667   -4.0419 H   0  0  0  0  0  0  0  0  0  0  0  0
    1.5773   -0.7621   -3.6070 C   0  0  0  0  0  0  0  0  0  0  0  0
    0.9022    0.1165   -3.6322 H   0  0  0  0  0  0  0  0  0  0  0  0
    1.5133   -1.2731   -4.5712 H   0  0  0  0  0  0  0  0  0  0  0  0
    1.1804   -1.4501   -2.8319 H   0  0  0  0  0  0  0  0  0  0  0  0
    3.9312   -1.4815   -2.9488 C   0  0  0  0  0  0  0  0  0  0  0  0
    4.9643   -1.1569   -2.7862 H   0  0  0  0  0  0  0  0  0  0  0  0
    3.6020   -1.9726   -2.0118 H   0  0  0  0  0  0  0  0  0  0  0  0
    3.9314   -2.2468   -3.7314 H   0  0  0  0  0  0  0  0  0  0  0  0
    3.7575    1.2441   -1.5525 C   0  0  0  0  0  0  0  0  0  0  0  0
    4.9266    1.5928   -2.2055 C   0  0  0  0  0  0  0  0  0  0  0  0
    5.1453    1.2425   -3.2115 H   0  0  0  0  0  0  0  0  0  0  0  0
    5.8278    2.4239   -1.5480 C   0  0  0  0  0  0  0  0  0  0  0  0
    6.7504    2.7116   -2.0567 H   0  0  0  0  0  0  0  0  0  0  0  0
    5.5778    2.8955   -0.2627 C   0  0  0  0  0  0  0  0  0  0  0  0
    6.3026    3.5404    0.2317 H   0  0  0  0  0  0  0  0  0  0  0  0
    4.4081    2.5352    0.3789 C   0  0  0  0  0  0  0  0  0  0  0  0
    4.2149    2.8898    1.3902 H   0  0  0  0  0  0  0  0  0  0  0  0
    3.4726    1.7198   -0.2605 C   0  0  0  0  0  0  0  0  0  0  0  0
    1.5827   -1.7302   -0.1121 Cl  0  0  0  0  0  0  0  0  0  0  0  0
    0.1557    2.1697   -2.0419 Cl  0  0  0  0  0  0  0  0  0  0  0  0
   -0.5548    0.4660    0.5046 C   0  0  0  0  0  0  0  0  0  0  0  0
   -0.9319    1.5315    1.5617 C   0  0  0  0  0  0  0  0  0  0  0  0
   -2.4661    1.3385    1.7851 C   0  0  0  0  0  0  0  0  0  0  0  0
   -2.7458    1.4731    2.8421 H   0  0  0  0  0  0  0  0  0  0  0  0
   -3.0348    2.1050    1.2303 H   0  0  0  0  0  0  0  0  0  0  0  0
   -2.8136   -0.0860    1.2796 C   0  0  0  0  0  0  0  0  0  0  0  0
   -1.5947   -0.4128    0.4152 N   0  0  0  0  0  0  0  0  0  0  0  0
   -0.6537    2.9259    0.9926 C   0  0  0  0  0  0  0  0  0  0  0  0
   -0.9198    3.7216    1.6943 H   0  0  0  0  0  0  0  0  0  0  0  0
   -1.2137    3.0987    0.0596 H   0  0  0  0  0  0  0  0  0  0  0  0
    0.4080    3.0595    0.7246 H   0  0  0  0  0  0  0  0  0  0  0  0
   -0.2066    1.3132    2.8852 C   0  0  0  0  0  0  0  0  0  0  0  0
    0.6401    0.2129    3.0865 C   0  0  0  0  0  0  0  0  0  0  0  0
    0.8439   -0.4931    2.2690 H   0  0  0  0  0  0  0  0  0  0  0  0
    1.2581    0.0133    4.3251 C   0  0  0  0  0  0  0  0  0  0  0  0
    1.9144   -0.8451    4.4662 H   0  0  0  0  0  0  0  0  0  0  0  0
    1.0418    0.9099    5.3747 C   0  0  0  0  0  0  0  0  0  0  0  0
    1.5229    0.7525    6.3375 H   0  0  0  0  0  0  0  0  0  0  0  0
    0.2065    2.0145    5.1782 C   0  0  0  0  0  0  0  0  0  0  0  0
    0.0394    2.7208    5.9897 H   0  0  0  0  0  0  0  0  0  0  0  0
   -0.4140    2.2151    3.9435 C   0  0  0  0  0  0  0  0  0  0  0  0
   -1.0609    3.0797    3.8017 H   0  0  0  0  0  0  0  0  0  0  0  0
   -2.9501   -1.0558    2.4530 C   0  0  0  0  0  0  0  0  0  0  0  0
   -3.1444   -2.0869    2.1157 H   0  0  0  0  0  0  0  0  0  0  0  0
   -3.7799   -0.7695    3.1082 H   0  0  0  0  0  0  0  0  0  0  0  0
   -2.0399   -1.0803    3.0684 H   0  0  0  0  0  0  0  0  0  0  0  0
   -4.0867   -0.0986    0.4308 C   0  0  0  0  0  0  0  0  0  0  0  0
   -4.0277    0.6012   -0.4131 H   0  0  0  0  0  0  0  0  0  0  0  0
   -4.9620    0.1771    1.0286 H   0  0  0  0  0  0  0  0  0  0  0  0
   -4.2792   -1.0925    0.0050 H   0  0  0  0  0  0  0  0  0  0  0  0
   -1.6126   -1.5825   -0.4517 C   0  0  0  0  0  0  0  0  0  0  0  0
   -1.2809   -2.8679    0.0396 C   0  0  0  0  0  0  0  0  0  0  0  0
   -1.4388   -3.9761   -0.8126 C   0  0  0  0  0  0  0  0  0  0  0  0
   -1.1919   -4.9704   -0.4418 H   0  0  0  0  0  0  0  0  0  0  0  0
   -1.8808   -3.8194   -2.1234 C   0  0  0  0  0  0  0  0  0  0  0  0
   -2.0053   -4.6906   -2.7654 H   0  0  0  0  0  0  0  0  0  0  0  0
   -2.1421   -2.5427   -2.6223 C   0  0  0  0  0  0  0  0  0  0  0  0
   -2.4515   -2.4215   -3.6594 H   0  0  0  0  0  0  0  0  0  0  0  0
   -2.0027   -1.4118   -1.8060 C   0  0  0  0  0  0  0  0  0  0  0  0
   -0.7129   -3.1277    1.4102 C   0  0  0  0  0  0  0  0  0  0  0  0
   -0.5131   -2.1791    1.9503 H   0  0  0  0  0  0  0  0  0  0  0  0
    0.2967   -3.5884    1.2885 H   0  0  0  0  0  0  0  0  0  0  0  0
   -1.5928   -4.0533    2.2495 C   0  0  0  0  0  0  0  0  0  0  0  0
   -1.6601   -5.0568    1.8145 H   0  0  0  0  0  0  0  0  0  0  0  0
   -2.6183   -3.6629    2.3342 H   0  0  0  0  0  0  0  0  0  0  0  0
   -1.1920   -4.1611    3.2637 H   0  0  0  0  0  0  0  0  0  0  0  0
   -2.2101   -0.0514   -2.4187 C   0  0  0  0  0  0  0  0  0  0  0  0
   -1.3418    0.1637   -3.0889 H   0  0  0  0  0  0  0  0  0  0  0  0
   -2.1589    0.7606   -1.6588 H   0  0  0  0  0  0  0  0  0  0  0  0
   -3.5170    0.0710   -3.1993 C   0  0  0  0  0  0  0  0  0  0  0  0
   -4.3809   -0.2191   -2.5909 H   0  0  0  0  0  0  0  0  0  0  0  0
   -3.5202   -0.5613   -4.0947 H   0  0  0  0  0  0  0  0  0  0  0  0
   -3.6725    1.1051   -3.5320 H   0  0  0  0  0  0  0  0  0  0  0  0
  2  1  1  0  0  0  0
  3  1  2  0  0  0  0
  4  3  1  0  0  0  0
  5  2  1  0  0  0  0
  6  5  1  0  0  0  0
  7  5  1  0  0  0  0
  8  7  1  0  0  0  0
  9  7  1  0  0  0  0
 10  7  1  0  0  0  0
 11  5  1  0  0  0  0
 12 11  1  0  0  0  0
 13 11  1  0  0  0  0
 14 11  1  0  0  0  0
 15  2  1  0  0  0  0
 15 24  1  0  0  0  0
 16 15  2  0  0  0  0
 17 16  1  0  0  0  0
 18 16  1  0  0  0  0
 19 18  1  0  0  0  0
 20 18  2  0  0  0  0
 21 20  1  0  0  0  0
 22 20  1  0  0  0  0
 22 24  2  0  0  0  0
 23 22  1  0  0  0  0
 24  3  1  0  0  0  0
  1 25  1  0  0  0  0
  1 26  1  0  0  0  0
 27 33  1  0  0  0  0
 28 29  1  0  0  0  0
 28 34  1  0  0  0  0
 28 38  1  0  0  0  0
 29 30  1  0  0  0  0
 29 31  1  0  0  0  0
 29 32  1  0  0  0  0
 32 33  1  0  0  0  0
 32 49  1  0  0  0  0
 32 53  1  0  0  0  0
 33 57  1  0  0  0  0
 34 35  1  0  0  0  0
 34 36  1  0  0  0  0
 34 37  1  0  0  0  0
 38 39  1  0  0  0  0
 38 47  2  0  0  0  0
 39 40  1  0  0  0  0
 39 41  2  0  0  0  0
 41 42  1  0  0  0  0
 41 43  1  0  0  0  0
 43 44  1  0  0  0  0
 43 45  2  0  0  0  0
 45 46  1  0  0  0  0
 45 47  1  0  0  0  0
 47 48  1  0  0  0  0
 49 50  1  0  0  0  0
 49 51  1  0  0  0  0
 49 52  1  0  0  0  0
 53 54  1  0  0  0  0
 53 55  1  0  0  0  0
 53 56  1  0  0  0  0
 57 58  1  0  0  0  0
 57 65  2  0  0  0  0
 58 59  2  0  0  0  0
 58 66  1  0  0  0  0
 59 60  1  0  0  0  0
 59 61  1  0  0  0  0
 61 62  1  0  0  0  0
 61 63  2  0  0  0  0
 63 64  1  0  0  0  0
 63 65  1  0  0  0  0
 65 73  1  0  0  0  0
 66 67  1  0  0  0  0
 66 68  1  0  0  0  0
 66 69  1  0  0  0  0
 69 70  1  0  0  0  0
 69 71  1  0  0  0  0
 69 72  1  0  0  0  0
 73 74  1  0  0  0  0
 73 75  1  0  0  0  0
 73 76  1  0  0  0  0
 76 77  1  0  0  0  0
 76 78  1  0  0  0  0
 76 79  1  0  0  0  0
 27 28  1  0  0  0  0
  1 27  1  0  0  0  0
M  END
> <FrozenCore-PM6_ENERGY>
25.148

> <RMSD_CONF_CG-CS>
1.039172

> <RMSD_CONF_GO-CS>
0.000000

> <UID>


> <freeEnergyA>
-2425.34042633

> <freeEnergyF>
-2425.31762439

> <freeEnergyE>
-2425.34042633

> <freeEnergyC>
-2080.08599888

> <freeEnergyL>
-947.4670283

> <freeEnergyX>
-2158.61318085

> <freeEnergyZ>
-2080.05564048

> <freeEnergyD>
-2080.10813512

> <G_Propene>
-117.738020895

> <G_Ethene>
-78.4716324751

> <G_HoveydaProd>
-502.204109499

> <G_SIMes>
-924.27249048

> <G_HG_RuCl2_SIMes>
-2402.13728523

> <DG_referenceProductionBarrier>
0.01468968

> <hartree_to_kcalmol>
627.49467516

> <DFT_IDENTIFIER>
1707185057474

> <DFT_MACHINE>
158.36.42.38

> <XTB_IDENTIFIER>
NREC

> <XTB_MACHINE>
NREC

> <DE_Synth>
-5.3985123889105248

> <DESCRIPTOR_DEFINITION_1>
desc1=( echo "1 * ( e( $hartree_to_kcalmol * ( ( $freeEnergyZ - $freeEnergyD ) - ( $freeEnergyX + 2*$G_Ethene - $freeEnergyD - 2*$G_Propene ) - $DDG_reference_HGII ) / $kT ) ) " | bc -l )

> <DESCRIPTOR_DEFINITION_2>
desc2=$( echo "1 * ( $hartree_to_kcalmol * ( ( $freeEnergyZ - $freeEnergyD ) - ( $freeEnergyX + 2*$G_Ethene - $freeEnergyD - 2*$G_Propene ) ) )" | bc -l )

> <DESCRIPTOR_DEFINITION_3>
desc3=$( echo "1 * $hartree_to_kcalmol * ( $DG_referenceProductionBarrier - ( $freeEnergyX + 2*$G_Ethene - $freeEnergyD - 2*$G_Propene ) )" | bc -l )

> <WEIGHT_DEFINITION_1>
w1=$( echo "1 / ( 1 + e( $hartree_to_kcalmol * ( ( ( $freeEnergyX + 2*$G_Ethene - $freeEnergyD - 2*$G_Propene ) ) - ( $DG_referenceProductionBarrier + $magnitude4 ) ) / $kT ) )" | bc -l )

> <WEIGHT_DEFINITION_2>
w2=$( echo "1 / ( 1 + e( $hartree_to_kcalmol * ( ABS( $freeEnergyC + $G_HoveydaProd - $freeEnergyA - 2*${G_Ethene} - $DG_referencePrecursorStabilityHII ) - ( $DDG_referencePrecursorStability + $magnitude1 ) ) / $kT ) )" | bc -l )

> <WEIGHT_DEFINITION_3>
w3=$( echo "1 / ( 1 + e( $hartree_to_kcalmol * ( ( $freeEnergyE + $G_PCy3 - $G_HI_precursor - $freeEnergyL ) - $magnitude1 ) / $kT ) )" | bc -l )

> <WEIGHT_DEFINITION_4>
w4=$( echo "1 / ( 1 + e( $hartree_to_kcalmol * ( - ( $freeEnergyF - $freeEnergyA ) + $magnitude2 ) / $kT ) )" | bc -l )

> <FITNESS_DEFINITION>
fitness=$( echo "( $desc1 + $desc2 + $desc3 ) * $w1 * $w2 * $w3 * $w4" | bc -l )

> <DESCRIPTOR_1>
12.84993889076971671691

> <DESCRIPTOR_2>
15.538983338663849832

> <DESCRIPTOR_3>
0.0000000001

> <WEIGHT_1>
.97599246684073653044

> <WEIGHT_2>
.99999998795950988659

> <WEIGHT_3>
.99999999999999784965

> <WEIGHT_4>
.99999998965553284188

> <FITNESS>
27.70737361752384307611

$$$$
