IQODAUMODN4_A1
  CDK     02052410213D

 75 79  0  0  0  0  0  0  0  0999 V2000
   -0.8009    0.1048    0.2925 Ru  0  0  0  0  0  0  0  0  0  0  0  0
   -2.5787    1.4940    0.2925 O   0  0  0  0  0  0  0  0  0  0  0  0
   -2.0111   -0.8993    1.2258 C   0  0  0  0  0  0  0  0  0  0  0  0
   -1.7783   -1.9220    1.5187 H   0  0  0  0  0  0  0  0  0  0  0  0
   -2.8142    2.7198   -0.4827 C   0  0  0  0  0  0  0  0  0  0  0  0
   -3.2286    3.4772    0.2159 H   0  0  0  0  0  0  0  0  0  0  0  0
   -1.3908    3.0400   -0.9163 C   0  0  0  0  0  0  0  0  0  0  0  0
   -1.3167    4.0144   -1.4042 H   0  0  0  0  0  0  0  0  0  0  0  0
   -1.0003    2.2744   -1.6176 H   0  0  0  0  0  0  0  0  0  0  0  0
   -0.7063    3.0363   -0.0416 H   0  0  0  0  0  0  0  0  0  0  0  0
   -3.7479    2.3852   -1.6322 C   0  0  0  0  0  0  0  0  0  0  0  0
   -3.4247    1.4426   -2.1165 H   0  0  0  0  0  0  0  0  0  0  0  0
   -3.7412    3.1630   -2.4022 H   0  0  0  0  0  0  0  0  0  0  0  0
   -4.7821    2.2326   -1.3067 H   0  0  0  0  0  0  0  0  0  0  0  0
   -3.5709    0.9890    1.0909 C   0  0  0  0  0  0  0  0  0  0  0  0
   -4.7400    1.6420    1.4396 C   0  0  0  0  0  0  0  0  0  0  0  0
   -4.9583    2.6482    1.0897 H   0  0  0  0  0  0  0  0  0  0  0  0
   -5.6412    0.9845    2.2707 C   0  0  0  0  0  0  0  0  0  0  0  0
   -6.5635    1.4934    2.5585 H   0  0  0  0  0  0  0  0  0  0  0  0
   -5.3912   -0.3008    2.7423 C   0  0  0  0  0  0  0  0  0  0  0  0
   -6.1157   -0.7949    3.3872 H   0  0  0  0  0  0  0  0  0  0  0  0
   -4.2215   -0.9424    2.3820 C   0  0  0  0  0  0  0  0  0  0  0  0
   -4.0283   -1.9537    2.7366 H   0  0  0  0  0  0  0  0  0  0  0  0
   -3.2860   -0.3030    1.5666 C   0  0  0  0  0  0  0  0  0  0  0  0
   -1.3901   -0.4457   -1.8612 Cl  0  0  0  0  0  0  0  0  0  0  0  0
    0.0396    1.4927    2.0345 Cl  0  0  0  0  0  0  0  0  0  0  0  0
    1.1297   -2.2549    0.7843 N   0  0  0  0  0  0  0  0  0  0  0  0
    1.9681   -0.5742   -0.4098 N   0  0  0  0  0  0  0  0  0  0  0  0
    0.8159   -1.0111    0.2516 C   0  0  0  0  0  0  0  0  0  0  0  0
    2.5411   -2.7008    0.5016 C   0  0  0  0  0  0  0  0  0  0  0  0
    2.5354   -3.6586   -0.0551 H   0  0  0  0  0  0  0  0  0  0  0  0
    3.0869   -2.8648    1.4518 H   0  0  0  0  0  0  0  0  0  0  0  0
    3.1209   -1.5367   -0.3234 C   0  0  0  0  0  0  0  0  0  0  0  0
    3.9875   -1.0520    0.1692 H   0  0  0  0  0  0  0  0  0  0  0  0
    3.4377   -1.8467   -1.3392 H   0  0  0  0  0  0  0  0  0  0  0  0
    0.3071   -3.1532    1.5501 C   0  0  0  0  0  0  0  0  0  0  0  0
    0.2931   -3.0578    2.9632 C   0  0  0  0  0  0  0  0  0  0  0  0
   -0.3974   -4.0290    3.6968 C   0  0  0  0  0  0  0  0  0  0  0  0
   -0.4021   -3.9775    4.7836 H   0  0  0  0  0  0  0  0  0  0  0  0
   -1.0904   -5.0618    3.0469 C   0  0  0  0  0  0  0  0  0  0  0  0
   -1.1284   -5.1042    1.6463 C   0  0  0  0  0  0  0  0  0  0  0  0
   -1.6972   -5.8832    1.1434 H   0  0  0  0  0  0  0  0  0  0  0  0
   -0.4478   -4.1471    0.8833 C   0  0  0  0  0  0  0  0  0  0  0  0
    0.9649   -1.9170    3.6480 C   0  0  0  0  0  0  0  0  0  0  0  0
    2.0541   -1.9359    3.5137 H   0  0  0  0  0  0  0  0  0  0  0  0
    0.7647   -1.8824    4.7259 H   0  0  0  0  0  0  0  0  0  0  0  0
    0.6120   -0.9480    3.2291 H   0  0  0  0  0  0  0  0  0  0  0  0
   -1.7972   -6.0993    3.8568 C   0  0  0  0  0  0  0  0  0  0  0  0
   -2.3131   -6.8460    3.2392 H   0  0  0  0  0  0  0  0  0  0  0  0
   -2.5543   -5.6459    4.5134 H   0  0  0  0  0  0  0  0  0  0  0  0
   -1.0945   -6.6452    4.5033 H   0  0  0  0  0  0  0  0  0  0  0  0
   -0.5512   -4.1436   -0.6047 C   0  0  0  0  0  0  0  0  0  0  0  0
   -0.8571   -3.1402   -0.9726 H   0  0  0  0  0  0  0  0  0  0  0  0
   -1.2919   -4.8578   -0.9853 H   0  0  0  0  0  0  0  0  0  0  0  0
    0.4085   -4.3753   -1.0848 H   0  0  0  0  0  0  0  0  0  0  0  0
    2.1793    0.6486   -1.1443 C   0  0  0  0  0  0  0  0  0  0  0  0
    2.7163    1.7830   -0.4847 C   0  0  0  0  0  0  0  0  0  0  0  0
    2.9920    2.9368   -1.2309 C   0  0  0  0  0  0  0  0  0  0  0  0
    3.3964    3.8122   -0.7269 H   0  0  0  0  0  0  0  0  0  0  0  0
    2.7531    2.9779   -2.6113 C   0  0  0  0  0  0  0  0  0  0  0  0
    2.2353    1.8491   -3.2571 C   0  0  0  0  0  0  0  0  0  0  0  0
    2.0497    1.8748   -4.3287 H   0  0  0  0  0  0  0  0  0  0  0  0
    1.9484    0.6771   -2.5417 C   0  0  0  0  0  0  0  0  0  0  0  0
    3.0139    1.7921    0.9764 C   0  0  0  0  0  0  0  0  0  0  0  0
    2.4960    2.6301    1.4777 H   0  0  0  0  0  0  0  0  0  0  0  0
    4.0873    1.9008    1.1716 H   0  0  0  0  0  0  0  0  0  0  0  0
    2.6595    0.8919    1.5023 H   0  0  0  0  0  0  0  0  0  0  0  0
    3.0616    4.2214   -3.3807 C   0  0  0  0  0  0  0  0  0  0  0  0
    2.7628    4.1557   -4.4349 H   0  0  0  0  0  0  0  0  0  0  0  0
    4.1391    4.4406   -3.3624 H   0  0  0  0  0  0  0  0  0  0  0  0
    2.5467    5.0940   -2.9534 H   0  0  0  0  0  0  0  0  0  0  0  0
    1.4238   -0.5018   -3.2907 C   0  0  0  0  0  0  0  0  0  0  0  0
    1.0983   -1.3254   -2.6367 H   0  0  0  0  0  0  0  0  0  0  0  0
    2.1671   -0.8973   -3.9933 H   0  0  0  0  0  0  0  0  0  0  0  0
    0.5247   -0.2293   -3.8716 H   0  0  0  0  0  0  0  0  0  0  0  0
  1  2  1  0  0  0  0
  1  3  2  0  0  0  0
  3  4  1  0  0  0  0
  2  5  1  0  0  0  0
  5  6  1  0  0  0  0
  5  7  1  0  0  0  0
  7  8  1  0  0  0  0
  7  9  1  0  0  0  0
  7 10  1  0  0  0  0
  5 11  1  0  0  0  0
 11 12  1  0  0  0  0
 11 13  1  0  0  0  0
 11 14  1  0  0  0  0
  2 15  1  0  0  0  0
 15 24  1  0  0  0  0
 15 16  2  0  0  0  0
 16 17  1  0  0  0  0
 16 18  1  0  0  0  0
 18 19  1  0  0  0  0
 18 20  2  0  0  0  0
 20 21  1  0  0  0  0
 20 22  1  0  0  0  0
 22 24  2  0  0  0  0
 22 23  1  0  0  0  0
  3 24  1  0  0  0  0
  1 25  1  0  0  0  0
  1 26  1  0  0  0  0
 27 29  1  0  0  0  0
 27 30  1  0  0  0  0
 27 36  1  0  0  0  0
 28 29  1  0  0  0  0
 28 33  1  0  0  0  0
 28 56  1  0  0  0  0
 30 31  1  0  0  0  0
 30 32  1  0  0  0  0
 30 33  1  0  0  0  0
 33 34  1  0  0  0  0
 33 35  1  0  0  0  0
 36 37  1  0  0  0  0
 36 43  2  0  0  0  0
 37 38  2  0  0  0  0
 37 44  1  0  0  0  0
 38 39  1  0  0  0  0
 38 40  1  0  0  0  0
 40 41  2  0  0  0  0
 40 48  1  0  0  0  0
 41 42  1  0  0  0  0
 41 43  1  0  0  0  0
 43 52  1  0  0  0  0
 44 45  1  0  0  0  0
 44 46  1  0  0  0  0
 44 47  1  0  0  0  0
 48 49  1  0  0  0  0
 48 50  1  0  0  0  0
 48 51  1  0  0  0  0
 52 53  1  0  0  0  0
 52 54  1  0  0  0  0
 52 55  1  0  0  0  0
 56 57  1  0  0  0  0
 56 63  2  0  0  0  0
 57 58  2  0  0  0  0
 57 64  1  0  0  0  0
 58 59  1  0  0  0  0
 58 60  1  0  0  0  0
 60 61  2  0  0  0  0
 60 68  1  0  0  0  0
 61 62  1  0  0  0  0
 61 63  1  0  0  0  0
 63 72  1  0  0  0  0
 64 65  1  0  0  0  0
 64 66  1  0  0  0  0
 64 67  1  0  0  0  0
 68 69  1  0  0  0  0
 68 70  1  0  0  0  0
 68 71  1  0  0  0  0
 72 73  1  0  0  0  0
 72 74  1  0  0  0  0
 72 75  1  0  0  0  0
  1 29  1  0  0  0  0
M  END
> <FrozenCore-PM6_ENERGY>
10.443

> <RMSD_CONF_CG-CS>
1.006619

> <RMSD_CONF_GO-CS>
0.000000

> <UID>


> <freeEnergyA>
-2402.13790602

> <freeEnergyF>
-2402.12239991

> <freeEnergyE>
-2402.13790602

> <freeEnergyC>
-2056.88239189

> <freeEnergyL>
-924.27253033

> <freeEnergyX>
-2135.41524894

> <freeEnergyZ>
-2056.86024236

> <freeEnergyD>
-2056.90475009

> <G_Propene>
-117.738020895

> <G_Ethene>
-78.4716324751

> <G_HoveydaProd>
-502.204109499

> <G_SIMes>
-924.27249048

> <G_HG_RuCl2_SIMes>
-2402.13728523

> <DG_referenceProductionBarrier>
0.01468968

> <hartree_to_kcalmol>
627.49467516

> <DFT_IDENTIFIER>
1707184821041

> <DFT_MACHINE>
158.36.42.38

> <XTB_IDENTIFIER>
1707183866220

> <XTB_MACHINE>
158.36.42.38

> <DE_Synth>
-.3645367565874504

> <DESCRIPTOR_DEFINITION_1>
desc1=( echo "1 * ( e( $hartree_to_kcalmol * ( ( $freeEnergyZ - $freeEnergyD ) - ( $freeEnergyX + 2*$G_Ethene - $freeEnergyD - 2*$G_Propene ) - $DDG_reference_HGII ) / $kT ) ) " | bc -l )

> <DESCRIPTOR_DEFINITION_2>
desc2=$( echo "1 * ( $hartree_to_kcalmol * ( ( $freeEnergyZ - $freeEnergyD ) - ( $freeEnergyX + 2*$G_Ethene - $freeEnergyD - 2*$G_Propene ) ) )" | bc -l )

> <DESCRIPTOR_DEFINITION_3>
desc3=$( echo "1 * $hartree_to_kcalmol * ( $DG_referenceProductionBarrier - ( $freeEnergyX + 2*$G_Ethene - $freeEnergyD - 2*$G_Propene ) )" | bc -l )

> <WEIGHT_DEFINITION_1>
w1=$( echo "1 / ( 1 + e( $hartree_to_kcalmol * ( ( ( $freeEnergyX + 2*$G_Ethene - $freeEnergyD - 2*$G_Propene ) ) - ( $DG_referenceProductionBarrier + $magnitude4 ) ) / $kT ) )" | bc -l )

> <WEIGHT_DEFINITION_2>
w2=$( echo "1 / ( 1 + e( $hartree_to_kcalmol * ( ABS( $freeEnergyC + $G_HoveydaProd - $freeEnergyA - 2*${G_Ethene} - $DG_referencePrecursorStabilityHII ) - ( $DDG_referencePrecursorStability + $magnitude1 ) ) / $kT ) )" | bc -l )

> <WEIGHT_DEFINITION_3>
w3=$( echo "1 / ( 1 + e( $hartree_to_kcalmol * ( ( $freeEnergyE + $G_SIMes - $G_HG_RuCl2_SIMes - $freeEnergyL ) - ( $DG_referenceSynt  + $magnitude1 ) ) / $kT ) )" | bc -l )

> <WEIGHT_DEFINITION_4>
w4=$( echo "1 / ( 1 + e( $hartree_to_kcalmol * ( - ( $freeEnergyF - $freeEnergyA ) + $magnitude2 ) / $kT ) )" | bc -l )

> <FITNESS_DEFINITION>
fitness=$( echo "( $desc1 + $desc2 + $desc3 ) * $w1 * $w2 * $w3 * $w4" | bc -l )

> <DESCRIPTOR_1>
.99843629110395250546

> <DESCRIPTOR_2>
13.949043605690193432

> <DESCRIPTOR_3>
0.0000000001

> <WEIGHT_1>
.99989933863948950905

> <WEIGHT_2>
.99999999597493972644

> <WEIGHT_3>
.99999999999299190203

> <WEIGHT_4>
.99998379522033249470

> <FITNESS>
14.94573300673324712005

$$$$
