tBuSIMes-2_A2
  CDK     08122418203D

 99103  0  0  0  0  0  0  0  0999 V2000
    1.5275   -0.1799   -1.0380 Ru  0  0  0  0  0  0  0  0  0  0  0  0
    3.3053   -0.1799   -2.4272 O   0  0  0  0  0  0  0  0  0  0  0  0
    2.7377    0.7534   -0.0339 C   0  0  0  0  0  0  0  0  0  0  0  0
    2.5049    1.0463    0.9888 H   0  0  0  0  0  0  0  0  0  0  0  0
    3.5408   -0.9551   -3.6530 C   0  0  0  0  0  0  0  0  0  0  0  0
    4.0180   -0.2697   -4.3877 H   0  0  0  0  0  0  0  0  0  0  0  0
    2.1209   -1.3163   -4.0469 C   0  0  0  0  0  0  0  0  0  0  0  0
    2.0649   -1.7480   -5.0487 H   0  0  0  0  0  0  0  0  0  0  0  0
    1.6797   -2.0412   -3.3265 H   0  0  0  0  0  0  0  0  0  0  0  0
    1.4667   -0.4177   -4.0213 H   0  0  0  0  0  0  0  0  0  0  0  0
    4.4159   -2.1441   -3.2991 C   0  0  0  0  0  0  0  0  0  0  0  0
    4.3990   -2.9113   -4.0792 H   0  0  0  0  0  0  0  0  0  0  0  0
    5.4579   -1.8594   -3.1189 H   0  0  0  0  0  0  0  0  0  0  0  0
    4.0541   -2.6181   -2.3652 H   0  0  0  0  0  0  0  0  0  0  0  0
    4.2975    0.6185   -1.9222 C   0  0  0  0  0  0  0  0  0  0  0  0
    5.4666    0.9674   -2.5752 C   0  0  0  0  0  0  0  0  0  0  0  0
    5.6850    0.6148   -3.5807 H   0  0  0  0  0  0  0  0  0  0  0  0
    6.3677    1.7984   -1.9177 C   0  0  0  0  0  0  0  0  0  0  0  0
    7.2904    2.0856   -2.4264 H   0  0  0  0  0  0  0  0  0  0  0  0
    6.1178    2.2699   -0.6324 C   0  0  0  0  0  0  0  0  0  0  0  0
    6.8428    2.9139   -0.1380 H   0  0  0  0  0  0  0  0  0  0  0  0
    4.9481    1.9096    0.0092 C   0  0  0  0  0  0  0  0  0  0  0  0
    4.7549    2.2642    1.0205 H   0  0  0  0  0  0  0  0  0  0  0  0
    4.0126    1.0942   -0.6302 C   0  0  0  0  0  0  0  0  0  0  0  0
    2.1318   -2.3891   -0.4733 Cl  0  0  0  0  0  0  0  0  0  0  0  0
    0.6897    1.5565   -2.4215 Cl  0  0  0  0  0  0  0  0  0  0  0  0
   -0.1626   -0.1110    0.0380 C   0  0  0  0  0  0  0  0  0  0  0  0
   -0.4112    0.1853    1.3742 N   0  0  0  0  0  0  0  0  0  0  0  0
   -1.8243   -0.1236    1.8311 C   0  0  0  0  0  0  0  0  0  0  0  0
   -2.4515   -0.7691    0.5503 C   0  0  0  0  0  0  0  0  0  0  0  0
   -1.3909   -0.5161   -0.5003 N   0  0  0  0  0  0  0  0  0  0  0  0
   -1.7321   -0.8972    2.6431 H   0  0  0  0  0  0  0  0  0  0  0  0
   -3.3827   -0.2319    0.2453 H   0  0  0  0  0  0  0  0  0  0  0  0
   -1.7187   -0.6409   -1.9064 C   0  0  0  0  0  0  0  0  0  0  0  0
   -2.5912   -0.9102   -4.5850 C   0  0  0  0  0  0  0  0  0  0  0  0
   -2.4823    0.3885   -2.5258 C   0  0  0  0  0  0  0  0  0  0  0  0
   -1.3318   -1.7613   -2.6756 C   0  0  0  0  0  0  0  0  0  0  0  0
   -1.7822   -1.8876   -4.0013 C   0  0  0  0  0  0  0  0  0  0  0  0
   -2.9280    0.2302   -3.8420 C   0  0  0  0  0  0  0  0  0  0  0  0
   -1.4861   -2.7603   -4.5790 H   0  0  0  0  0  0  0  0  0  0  0  0
   -3.5223    1.0153   -4.3048 H   0  0  0  0  0  0  0  0  0  0  0  0
    0.5314    0.7064    2.3333 C   0  0  0  0  0  0  0  0  0  0  0  0
    2.1222    1.7381    4.4072 C   0  0  0  0  0  0  0  0  0  0  0  0
    0.9037    2.0751    2.3209 C   0  0  0  0  0  0  0  0  0  0  0  0
    1.0649   -0.1656    3.3158 C   0  0  0  0  0  0  0  0  0  0  0  0
    1.8345    0.3670    4.3570 C   0  0  0  0  0  0  0  0  0  0  0  0
    1.6798    2.5761    3.3753 C   0  0  0  0  0  0  0  0  0  0  0  0
    2.2266   -0.2943    5.1268 H   0  0  0  0  0  0  0  0  0  0  0  0
    1.9470    3.6309    3.3852 H   0  0  0  0  0  0  0  0  0  0  0  0
    0.5404    2.9740    1.1876 C   0  0  0  0  0  0  0  0  0  0  0  0
    0.7642    2.5059    0.2029 H   0  0  0  0  0  0  0  0  0  0  0  0
    1.0768    3.9303    1.2071 H   0  0  0  0  0  0  0  0  0  0  0  0
   -0.5421    3.2027    1.1760 H   0  0  0  0  0  0  0  0  0  0  0  0
    0.8724   -1.6406    3.2113 C   0  0  0  0  0  0  0  0  0  0  0  0
    1.2813   -2.1922    4.0653 H   0  0  0  0  0  0  0  0  0  0  0  0
    1.3898   -2.0176    2.3018 H   0  0  0  0  0  0  0  0  0  0  0  0
   -0.1875   -1.9304    3.1001 H   0  0  0  0  0  0  0  0  0  0  0  0
   -0.4349   -2.8286   -2.1544 C   0  0  0  0  0  0  0  0  0  0  0  0
    0.6011   -2.6848   -2.5396 H   0  0  0  0  0  0  0  0  0  0  0  0
   -0.7452   -3.8364   -2.4541 H   0  0  0  0  0  0  0  0  0  0  0  0
   -0.3527   -2.8311   -1.0469 H   0  0  0  0  0  0  0  0  0  0  0  0
   -2.7931    1.6653   -1.8214 C   0  0  0  0  0  0  0  0  0  0  0  0
   -3.3658    2.3667   -2.4404 H   0  0  0  0  0  0  0  0  0  0  0  0
   -1.8468    2.1770   -1.5565 H   0  0  0  0  0  0  0  0  0  0  0  0
   -3.3579    1.5053   -0.8876 H   0  0  0  0  0  0  0  0  0  0  0  0
   -3.0763   -1.0555   -5.9909 C   0  0  0  0  0  0  0  0  0  0  0  0
   -2.9437   -2.0716   -6.3834 H   0  0  0  0  0  0  0  0  0  0  0  0
   -2.5290   -0.3748   -6.6610 H   0  0  0  0  0  0  0  0  0  0  0  0
   -4.1431   -0.8095   -6.0813 H   0  0  0  0  0  0  0  0  0  0  0  0
    2.9273    2.2876    5.5394 C   0  0  0  0  0  0  0  0  0  0  0  0
    2.9315    3.3850    5.5659 H   0  0  0  0  0  0  0  0  0  0  0  0
    3.9762    1.9621    5.4686 H   0  0  0  0  0  0  0  0  0  0  0  0
    2.5476    1.9432    6.5116 H   0  0  0  0  0  0  0  0  0  0  0  0
   -2.8145   -2.2891    0.7553 C   0  0  0  0  0  0  0  0  0  0  0  0
   -2.6536    1.0611    2.4473 C   0  0  0  0  0  0  0  0  0  0  0  0
   -3.8144   -2.4252    1.9248 C   0  0  0  0  0  0  0  0  0  0  0  0
   -4.0754   -3.4782    2.0863 H   0  0  0  0  0  0  0  0  0  0  0  0
   -4.7499   -1.8928    1.7245 H   0  0  0  0  0  0  0  0  0  0  0  0
   -3.4049   -2.0564    2.8710 H   0  0  0  0  0  0  0  0  0  0  0  0
   -3.5195   -2.8337   -0.4982 C   0  0  0  0  0  0  0  0  0  0  0  0
   -4.0604   -3.7614   -0.2809 H   0  0  0  0  0  0  0  0  0  0  0  0
   -2.8161   -3.0732   -1.3012 H   0  0  0  0  0  0  0  0  0  0  0  0
   -4.2429   -2.1217   -0.9077 H   0  0  0  0  0  0  0  0  0  0  0  0
   -1.5716   -3.1220    1.0921 C   0  0  0  0  0  0  0  0  0  0  0  0
   -1.1507   -2.8605    2.0734 H   0  0  0  0  0  0  0  0  0  0  0  0
   -0.7569   -2.9699    0.3569 H   0  0  0  0  0  0  0  0  0  0  0  0
   -1.7954   -4.1931    1.1037 H   0  0  0  0  0  0  0  0  0  0  0  0
   -4.0582    0.5389    2.8253 C   0  0  0  0  0  0  0  0  0  0  0  0
   -4.6072    0.1549    1.9594 H   0  0  0  0  0  0  0  0  0  0  0  0
   -4.6682    1.3444    3.2516 H   0  0  0  0  0  0  0  0  0  0  0  0
   -4.0092   -0.2542    3.5789 H   0  0  0  0  0  0  0  0  0  0  0  0
   -1.9908    1.5568    3.7459 C   0  0  0  0  0  0  0  0  0  0  0  0
   -2.7079    2.0846    4.3843 H   0  0  0  0  0  0  0  0  0  0  0  0
   -1.1772    2.2647    3.5528 H   0  0  0  0  0  0  0  0  0  0  0  0
   -1.5701    0.7378    4.3379 H   0  0  0  0  0  0  0  0  0  0  0  0
   -2.8361    2.2299    1.4756 C   0  0  0  0  0  0  0  0  0  0  0  0
   -1.8690    2.5963    1.0936 H   0  0  0  0  0  0  0  0  0  0  0  0
   -3.3380    3.0759    1.9567 H   0  0  0  0  0  0  0  0  0  0  0  0
   -3.4395    1.9454    0.6000 H   0  0  0  0  0  0  0  0  0  0  0  0
  2  1  1  0  0  0  0
  3  1  2  0  0  0  0
  4  3  1  0  0  0  0
  5  2  1  0  0  0  0
  6  5  1  0  0  0  0
  7  5  1  0  0  0  0
  8  7  1  0  0  0  0
  9  7  1  0  0  0  0
 10  7  1  0  0  0  0
 11  5  1  0  0  0  0
 12 11  1  0  0  0  0
 13 11  1  0  0  0  0
 14 11  1  0  0  0  0
 15  2  1  0  0  0  0
 15 24  1  0  0  0  0
 16 15  2  0  0  0  0
 17 16  1  0  0  0  0
 18 16  1  0  0  0  0
 19 18  1  0  0  0  0
 20 18  2  0  0  0  0
 21 20  1  0  0  0  0
 22 20  1  0  0  0  0
 22 24  2  0  0  0  0
 23 22  1  0  0  0  0
 24  3  1  0  0  0  0
  1 25  1  0  0  0  0
  1 26  1  0  0  0  0
 27 28  1  0  0  0  0
 27 31  1  0  0  0  0
 28 29  1  0  0  0  0
 29 32  1  0  0  0  0
 29 30  1  0  0  0  0
 30 33  1  0  0  0  0
 30 31  1  0  0  0  0
 34 37  2  0  0  0  0
 37 38  1  0  0  0  0
 35 38  2  0  0  0  0
 35 39  1  0  0  0  0
 36 39  2  0  0  0  0
 34 36  1  0  0  0  0
 38 40  1  0  0  0  0
 39 41  1  0  0  0  0
 31 34  1  0  0  0  0
 42 45  2  0  0  0  0
 45 46  1  0  0  0  0
 43 46  2  0  0  0  0
 43 47  1  0  0  0  0
 44 47  2  0  0  0  0
 42 44  1  0  0  0  0
 46 48  1  0  0  0  0
 47 49  1  0  0  0  0
 28 42  1  0  0  0  0
 50 51  1  0  0  0  0
 50 52  1  0  0  0  0
 50 53  1  0  0  0  0
 44 50  1  0  0  0  0
 54 55  1  0  0  0  0
 54 56  1  0  0  0  0
 54 57  1  0  0  0  0
 45 54  1  0  0  0  0
 58 59  1  0  0  0  0
 58 60  1  0  0  0  0
 58 61  1  0  0  0  0
 37 58  1  0  0  0  0
 62 63  1  0  0  0  0
 62 64  1  0  0  0  0
 62 65  1  0  0  0  0
 36 62  1  0  0  0  0
 66 67  1  0  0  0  0
 66 68  1  0  0  0  0
 66 69  1  0  0  0  0
 35 66  1  0  0  0  0
 70 71  1  0  0  0  0
 70 72  1  0  0  0  0
 70 73  1  0  0  0  0
 43 70  1  0  0  0  0
 30 74  1  0  0  0  0
 29 75  1  0  0  0  0
 76 77  1  0  0  0  0
 76 78  1  0  0  0  0
 76 79  1  0  0  0  0
 74 76  1  0  0  0  0
 80 81  1  0  0  0  0
 80 82  1  0  0  0  0
 80 83  1  0  0  0  0
 74 80  1  0  0  0  0
 84 85  1  0  0  0  0
 84 86  1  0  0  0  0
 84 87  1  0  0  0  0
 74 84  1  0  0  0  0
 88 89  1  0  0  0  0
 88 90  1  0  0  0  0
 88 91  1  0  0  0  0
 75 88  1  0  0  0  0
 92 93  1  0  0  0  0
 92 94  1  0  0  0  0
 92 95  1  0  0  0  0
 75 92  1  0  0  0  0
 96 97  1  0  0  0  0
 96 98  1  0  0  0  0
 96 99  1  0  0  0  0
 75 96  1  0  0  0  0
  1 27  1  0  0  0  0
M  END
> <FrozenCore-PM6_ENERGY>
-143.039

> <RMSD_CONF_CG-CS>
0.408683

> <RMSD_CONF_GO-CS>
0.000000

> <UID>


> <DESCRIPTOR_DEFINITION_1>
desc1=( echo "1 * ( e( $hartree_to_kcalmol * ( ( $freeEnergyZ - $freeEnergyD ) - ( $freeEnergyX + 2*$G_Ethene - $freeEnergyD - 2*$G_Propene ) - $DDG_reference_HGII ) / $kT ) ) " | bc -l )

> <DESCRIPTOR_DEFINITION_2>
desc1=( echo "1 * ( e( $hartree_to_kcalmol * ( ( $freeEnergyZ - $freeEnergyD ) - ( $freeEnergyX + 2*$G_Ethene - $freeEnergyD - 2*$G_Propene ) - $DDG_reference_HGII ) / $kT ) ) " | bc -l )

> <DESCRIPTOR_DEFINITION_3>
desc1=( echo "1 * ( e( $hartree_to_kcalmol * ( ( $freeEnergyZ - $freeEnergyD ) - ( $freeEnergyX + 2*$G_Ethene - $freeEnergyD - 2*$G_Propene ) - $DDG_reference_HGII ) / $kT ) ) " | bc -l )

> <WEIGHT_DEFINITION_1>
w1=$( echo "1 / ( 1 + e( $hartree_to_kcalmol * ( ( ( $freeEnergyX + 2*$G_Ethene - $freeEnergyD - 2*$G_Propene ) ) - ( $DG_referenceProductionBarrier + $magnitude4 ) ) / $kT ) )" | bc -l )

> <WEIGHT_DEFINITION_2>
w1=$( echo "1 / ( 1 + e( $hartree_to_kcalmol * ( ( ( $freeEnergyX + 2*$G_Ethene - $freeEnergyD - 2*$G_Propene ) ) - ( $DG_referenceProductionBarrier + $magnitude4 ) ) / $kT ) )" | bc -l )

> <WEIGHT_DEFINITION_3>
w1=$( echo "1 / ( 1 + e( $hartree_to_kcalmol * ( ( ( $freeEnergyX + 2*$G_Ethene - $freeEnergyD - 2*$G_Propene ) ) - ( $DG_referenceProductionBarrier + $magnitude4 ) ) / $kT ) )" | bc -l )

> <WEIGHT_DEFINITION_4>
w1=$( echo "1 / ( 1 + e( $hartree_to_kcalmol * ( ( ( $freeEnergyX + 2*$G_Ethene - $freeEnergyD - 2*$G_Propene ) ) - ( $DG_referenceProductionBarrier + $magnitude4 ) ) / $kT ) )" | bc -l )

> <CALCULATION_OF_OVERALL_FITNESS>
fitness=$( echo "( $desc1 + $desc2 + $desc3 ) * ( $w1 * $w2 * $w3 * $w4 )" | bc -l )

> <freeEnergyA>
-2716.21240202

> <freeEnergyF>
-2716.20389708

> <freeEnergyE>
-2716.21240202

> <freeEnergyC>
-2370.96944277

> <freeEnergyL>
-1238.36134263

> <freeEnergyX>
-2449.50315471

> <freeEnergyZ>
-2370.95322181

> <freeEnergyD>
-2370.99751774

> <G_Propene>
-117.738020895

> <G_Ethene>
-78.4716324751

> <G_HoveydaProd>
-502.204109499

> <G_SIMes>
-924.27249048

> <G_HG_RuCl2_SIMes>
-2402.13728523

> <DG_referenceProductionBarrier>
0.01468968

> <DG_referencePrecursorStabilityHII>
-0.0052201621

> <DG_referencePrecursorStabilityHI>
0.0117775312

> <DDG_referencePrecursorStability>
.0169976933

> <DG_referenceSynt>
0.0226072217

> <hartree_to_kcalmol>
627.49467516

> <boltzmann_constant>
0.0000000000000000000000138066

> <avogadro_number>
602214000000000000000000

> <jmol_to_kcalmol>
0.00023901

> <temp>
313.15

> <kT>
.6223089948281258706000000000

> <magnitude1>
1.43290809

> <magnitude2>
2.86581618

> <magnitude3>
4.29872427

> <magnitude4>
5.73163236

> <DFT_IDENTIFIER>
1723736688460

> <DFT_MACHINE>
158.39.114.73

> <XTB_IDENTIFIER>
NREC

> <XTB_MACHINE>
NREC

> <DESCRIPTOR_1>
.00599083941334609039

> <DESCRIPTOR_2>
10.765336422224404632

> <DESCRIPTOR_3>
0.0000000001

> <WEIGHT_1>
.98662963438641837317

> <WEIGHT_2>
.99873475890816914242

> <WEIGHT_3>
.99998697146805530528

> <WEIGHT_4>
.98148849015408706110

> <FITNESS>
10.41725018624149223682

$$$$
