
  CDK     08152407503D

 85 89  0  0  0  0  0  0  0  0999 V2000
    0.9938    2.4290   -2.8370 H   0  0  0  0  0  0  0  0  0  0  0  0
    1.0910    3.6484   -2.7041 C   0  0  0  0  0  0  0  0  0  0  0  0
    1.1746    3.7368   -3.8091 H   0  0  0  0  0  0  0  0  0  0  0  0
    2.2652    3.7322   -1.7843 C   0  0  0  0  0  0  0  0  0  0  0  0
    2.3226    4.6013   -1.1086 H   0  0  0  0  0  0  0  0  0  0  0  0
    3.2289    3.3758   -2.1867 H   0  0  0  0  0  0  0  0  0  0  0  0
    0.9877    2.2731   -1.0701 Ru  0  0  0  0  0  0  0  0  0  0  0  0
   -0.1733    3.8409   -1.9774 C   0  0  0  0  0  0  0  0  0  0  0  0
   -0.2702    4.6846   -1.2833 H   0  0  0  0  0  0  0  0  0  0  0  0
   -1.1015    3.5156   -2.4776 H   0  0  0  0  0  0  0  0  0  0  0  0
    0.5225    3.7340    0.8365 Cl  0  0  0  0  0  0  0  0  0  0  0  0
    2.1837    0.5895   -2.2911 Cl  0  0  0  0  0  0  0  0  0  0  0  0
    1.2955    1.0361    0.5547 C   0  0  0  0  0  0  0  0  0  0  0  0
    2.4153    0.5873    1.1651 N   0  0  0  0  0  0  0  0  0  0  0  0
    2.0875   -0.2610    2.3622 C   0  0  0  0  0  0  0  0  0  0  0  0
    0.5255   -0.3946    2.2889 C   0  0  0  0  0  0  0  0  0  0  0  0
    0.1993    0.4875    1.1332 N   0  0  0  0  0  0  0  0  0  0  0  0
    2.5581   -1.2562    2.2285 H   0  0  0  0  0  0  0  0  0  0  0  0
    0.0879    0.0577    3.2016 H   0  0  0  0  0  0  0  0  0  0  0  0
   -1.0948    0.9287    0.6675 C   0  0  0  0  0  0  0  0  0  0  0  0
   -3.4611    2.0826   -0.3819 C   0  0  0  0  0  0  0  0  0  0  0  0
   -1.9059    1.7486    1.4963 C   0  0  0  0  0  0  0  0  0  0  0  0
   -1.4971    0.6177   -0.6603 C   0  0  0  0  0  0  0  0  0  0  0  0
   -2.6669    1.2337   -1.1588 C   0  0  0  0  0  0  0  0  0  0  0  0
   -3.0754    2.2962    0.9547 C   0  0  0  0  0  0  0  0  0  0  0  0
   -2.9698    1.0066   -2.1930 H   0  0  0  0  0  0  0  0  0  0  0  0
   -3.6881    2.9501    1.5947 H   0  0  0  0  0  0  0  0  0  0  0  0
    3.7442    0.7337    0.6014 C   0  0  0  0  0  0  0  0  0  0  0  0
    6.3324    0.9516   -0.5495 C   0  0  0  0  0  0  0  0  0  0  0  0
    4.4156    1.9809    0.6155 C   0  0  0  0  0  0  0  0  0  0  0  0
    4.3569   -0.3988    0.0057 C   0  0  0  0  0  0  0  0  0  0  0  0
    5.6433   -0.2707   -0.5391 C   0  0  0  0  0  0  0  0  0  0  0  0
    5.6927    2.0567    0.0255 C   0  0  0  0  0  0  0  0  0  0  0  0
    6.1029   -1.1566   -1.0048 H   0  0  0  0  0  0  0  0  0  0  0  0
    6.2067    3.0308    0.0339 H   0  0  0  0  0  0  0  0  0  0  0  0
    3.8811    3.2200    1.2790 C   0  0  0  0  0  0  0  0  0  0  0  0
    2.7855    3.3259    1.1927 H   0  0  0  0  0  0  0  0  0  0  0  0
    4.3457    4.1194    0.8315 H   0  0  0  0  0  0  0  0  0  0  0  0
    4.1400    3.2292    2.3599 H   0  0  0  0  0  0  0  0  0  0  0  0
    3.6570   -1.7238   -0.1127 C   0  0  0  0  0  0  0  0  0  0  0  0
    4.1589   -2.3574   -0.8675 H   0  0  0  0  0  0  0  0  0  0  0  0
    2.6080   -1.5846   -0.4301 H   0  0  0  0  0  0  0  0  0  0  0  0
    3.6579   -2.2912    0.8428 H   0  0  0  0  0  0  0  0  0  0  0  0
   -0.8814   -0.4722   -1.5059 C   0  0  0  0  0  0  0  0  0  0  0  0
   -1.0128   -0.2472   -2.5805 H   0  0  0  0  0  0  0  0  0  0  0  0
   -1.4042   -1.4323   -1.3006 H   0  0  0  0  0  0  0  0  0  0  0  0
    0.1984   -0.6170   -1.3465 H   0  0  0  0  0  0  0  0  0  0  0  0
   -1.5329    2.0732    2.9169 C   0  0  0  0  0  0  0  0  0  0  0  0
   -2.1605    2.8983    3.3015 H   0  0  0  0  0  0  0  0  0  0  0  0
   -0.4770    2.3940    2.9736 H   0  0  0  0  0  0  0  0  0  0  0  0
   -1.6765    1.2032    3.5932 H   0  0  0  0  0  0  0  0  0  0  0  0
   -4.6869    2.7541   -0.9459 C   0  0  0  0  0  0  0  0  0  0  0  0
   -4.9472    2.3564   -1.9454 H   0  0  0  0  0  0  0  0  0  0  0  0
   -4.5254    3.8480   -1.0496 H   0  0  0  0  0  0  0  0  0  0  0  0
   -5.5649    2.6209   -0.2818 H   0  0  0  0  0  0  0  0  0  0  0  0
    7.6937    1.0696   -1.1862 C   0  0  0  0  0  0  0  0  0  0  0  0
    8.3750    0.2656   -0.8405 H   0  0  0  0  0  0  0  0  0  0  0  0
    8.1674    2.0437   -0.9580 H   0  0  0  0  0  0  0  0  0  0  0  0
    7.6247    0.9804   -2.2910 H   0  0  0  0  0  0  0  0  0  0  0  0
   -0.0806   -1.8391    2.1826 C   0  0  0  0  0  0  0  0  0  0  0  0
    2.6491    0.3450    3.6964 C   0  0  0  0  0  0  0  0  0  0  0  0
    0.2300   -2.6350    3.4624 C   0  0  0  0  0  0  0  0  0  0  0  0
   -0.2198   -3.6448    3.3771 H   0  0  0  0  0  0  0  0  0  0  0  0
   -0.1969   -2.1548    4.3654 H   0  0  0  0  0  0  0  0  0  0  0  0
    1.3166   -2.7702    3.6204 H   0  0  0  0  0  0  0  0  0  0  0  0
   -1.6167   -1.7448    2.0723 C   0  0  0  0  0  0  0  0  0  0  0  0
   -2.0554   -2.7576    2.1779 H   0  0  0  0  0  0  0  0  0  0  0  0
   -1.9518   -1.3333    1.1038 H   0  0  0  0  0  0  0  0  0  0  0  0
   -2.0445   -1.1095    2.8748 H   0  0  0  0  0  0  0  0  0  0  0  0
    0.4707   -2.6299    0.9883 C   0  0  0  0  0  0  0  0  0  0  0  0
    1.5234   -2.9294    1.1473 H   0  0  0  0  0  0  0  0  0  0  0  0
    0.4122   -2.0546    0.0485 H   0  0  0  0  0  0  0  0  0  0  0  0
   -0.1170   -3.5604    0.8527 H   0  0  0  0  0  0  0  0  0  0  0  0
    2.2817   -0.5547    4.8898 C   0  0  0  0  0  0  0  0  0  0  0  0
    1.1889   -0.6419    5.0369 H   0  0  0  0  0  0  0  0  0  0  0  0
    2.7022   -0.1103    5.8144 H   0  0  0  0  0  0  0  0  0  0  0  0
    2.7051   -1.5743    4.7886 H   0  0  0  0  0  0  0  0  0  0  0  0
    4.1902    0.3878    3.6402 C   0  0  0  0  0  0  0  0  0  0  0  0
    4.5875    0.6452    4.6430 H   0  0  0  0  0  0  0  0  0  0  0  0
    4.5776    1.1292    2.9225 H   0  0  0  0  0  0  0  0  0  0  0  0
    4.6083   -0.6000    3.3554 H   0  0  0  0  0  0  0  0  0  0  0  0
    2.0785    1.7494    3.9585 C   0  0  0  0  0  0  0  0  0  0  0  0
    2.1017    2.3911    3.0596 H   0  0  0  0  0  0  0  0  0  0  0  0
    2.6608    2.2513    4.7573 H   0  0  0  0  0  0  0  0  0  0  0  0
    1.0292    1.6978    4.3104 H   0  0  0  0  0  0  0  0  0  0  0  0
  1  2  1  0  0  0  0
  1  7  1  0  0  0  0
  2  3  1  0  0  0  0
  2  4  1  0  0  0  0
  4  5  1  0  0  0  0
  4  6  1  0  0  0  0
  7  8  1  0  0  0  0
  4  7  1  0  0  0  0
  2  8  1  0  0  0  0
  8  9  1  0  0  0  0
  8 10  1  0  0  0  0
  7 11  1  0  0  0  0
  7 12  1  0  0  0  0
 13 14  1  0  0  0  0
 13 17  1  0  0  0  0
 14 15  1  0  0  0  0
 15 18  1  0  0  0  0
 15 16  1  0  0  0  0
 16 19  1  0  0  0  0
 16 17  1  0  0  0  0
 20 23  2  0  0  0  0
 23 24  1  0  0  0  0
 21 24  2  0  0  0  0
 21 25  1  0  0  0  0
 22 25  2  0  0  0  0
 20 22  1  0  0  0  0
 24 26  1  0  0  0  0
 25 27  1  0  0  0  0
 17 20  1  0  0  0  0
 28 31  2  0  0  0  0
 31 32  1  0  0  0  0
 29 32  2  0  0  0  0
 29 33  1  0  0  0  0
 30 33  2  0  0  0  0
 28 30  1  0  0  0  0
 32 34  1  0  0  0  0
 33 35  1  0  0  0  0
 14 28  1  0  0  0  0
 36 37  1  0  0  0  0
 36 38  1  0  0  0  0
 36 39  1  0  0  0  0
 30 36  1  0  0  0  0
 40 41  1  0  0  0  0
 40 42  1  0  0  0  0
 40 43  1  0  0  0  0
 31 40  1  0  0  0  0
 44 45  1  0  0  0  0
 44 46  1  0  0  0  0
 44 47  1  0  0  0  0
 23 44  1  0  0  0  0
 48 49  1  0  0  0  0
 48 50  1  0  0  0  0
 48 51  1  0  0  0  0
 22 48  1  0  0  0  0
 52 53  1  0  0  0  0
 52 54  1  0  0  0  0
 52 55  1  0  0  0  0
 21 52  1  0  0  0  0
 56 57  1  0  0  0  0
 56 58  1  0  0  0  0
 56 59  1  0  0  0  0
 29 56  1  0  0  0  0
 16 60  1  0  0  0  0
 15 61  1  0  0  0  0
 62 63  1  0  0  0  0
 62 64  1  0  0  0  0
 62 65  1  0  0  0  0
 60 62  1  0  0  0  0
 66 67  1  0  0  0  0
 66 68  1  0  0  0  0
 66 69  1  0  0  0  0
 60 66  1  0  0  0  0
 70 71  1  0  0  0  0
 70 72  1  0  0  0  0
 70 73  1  0  0  0  0
 60 70  1  0  0  0  0
 74 75  1  0  0  0  0
 74 76  1  0  0  0  0
 74 77  1  0  0  0  0
 61 74  1  0  0  0  0
 78 79  1  0  0  0  0
 78 80  1  0  0  0  0
 78 81  1  0  0  0  0
 61 78  1  0  0  0  0
 82 83  1  0  0  0  0
 82 84  1  0  0  0  0
 82 85  1  0  0  0  0
 61 82  1  0  0  0  0
  7 13  1  0  0  0  0
M  END
>  <DFT-ENERGY>
-2370.95322304

$$$$
