
  CDK     08132417003D

 91 94  0  0  0  0  0  0  0  0999 V2000
   -0.4155   -4.2707   -2.1473 C   0  0  0  0  0  0  0  0  0  0  0  0
    0.6175   -4.2919   -2.5367 H   0  0  0  0  0  0  0  0  0  0  0  0
   -0.9359   -5.2140   -2.4290 H   0  0  0  0  0  0  0  0  0  0  0  0
   -0.9525   -3.4405   -2.6434 H   0  0  0  0  0  0  0  0  0  0  0  0
   -0.4434   -4.1405   -0.6426 C   0  0  0  0  0  0  0  0  0  0  0  0
   -1.4442   -4.1756   -0.1706 H   0  0  0  0  0  0  0  0  0  0  0  0
    0.6179   -4.6103    0.1779 C   0  0  0  0  0  0  0  0  0  0  0  0
    1.5640   -4.8369   -0.3454 H   0  0  0  0  0  0  0  0  0  0  0  0
    0.3430   -5.3361    1.4731 C   0  0  0  0  0  0  0  0  0  0  0  0
    1.2450   -5.4342    2.1062 H   0  0  0  0  0  0  0  0  0  0  0  0
   -0.0112   -6.3619    1.2319 H   0  0  0  0  0  0  0  0  0  0  0  0
   -0.4524   -4.8207    2.0465 H   0  0  0  0  0  0  0  0  0  0  0  0
    1.6039   -2.7880    1.2234 C   0  0  0  0  0  0  0  0  0  0  0  0
    1.3608   -2.9559    2.2936 H   0  0  0  0  0  0  0  0  0  0  0  0
    2.6514   -2.9618    0.8947 H   0  0  0  0  0  0  0  0  0  0  0  0
    0.3337   -2.2082    0.0296 Ru  0  0  0  0  0  0  0  0  0  0  0  0
   -1.2893   -2.3060    1.8149 Cl  0  0  0  0  0  0  0  0  0  0  0  0
    2.0005   -2.1691   -1.7049 Cl  0  0  0  0  0  0  0  0  0  0  0  0
    0.1747   -0.2105    0.0202 C   0  0  0  0  0  0  0  0  0  0  0  0
    0.7566    0.6838    0.8637 N   0  0  0  0  0  0  0  0  0  0  0  0
    0.3649    2.0976    0.5502 C   0  0  0  0  0  0  0  0  0  0  0  0
   -0.6232    1.9269   -0.6546 C   0  0  0  0  0  0  0  0  0  0  0  0
   -0.6153    0.4457   -0.8704 N   0  0  0  0  0  0  0  0  0  0  0  0
   -0.1920    2.5003    1.4219 H   0  0  0  0  0  0  0  0  0  0  0  0
   -0.1904    2.4108   -1.5554 H   0  0  0  0  0  0  0  0  0  0  0  0
   -1.0940   -0.2475   -2.0514 C   0  0  0  0  0  0  0  0  0  0  0  0
   -1.9830   -1.5727   -4.4016 C   0  0  0  0  0  0  0  0  0  0  0  0
   -0.3552   -0.1281   -3.2600 C   0  0  0  0  0  0  0  0  0  0  0  0
   -2.2716   -1.0406   -2.0081 C   0  0  0  0  0  0  0  0  0  0  0  0
   -2.6833   -1.6843   -3.1941 C   0  0  0  0  0  0  0  0  0  0  0  0
   -0.8177   -0.7878   -4.4071 C   0  0  0  0  0  0  0  0  0  0  0  0
   -3.5973   -2.2975   -3.1572 H   0  0  0  0  0  0  0  0  0  0  0  0
   -0.2300   -0.6969   -5.3337 H   0  0  0  0  0  0  0  0  0  0  0  0
    1.4153    0.2596    2.0801 C   0  0  0  0  0  0  0  0  0  0  0  0
    2.6533   -0.6380    4.4707 C   0  0  0  0  0  0  0  0  0  0  0  0
    2.7470   -0.2291    2.0403 C   0  0  0  0  0  0  0  0  0  0  0  0
    0.6990    0.2929    3.3030 C   0  0  0  0  0  0  0  0  0  0  0  0
    1.3378   -0.1469    4.4735 C   0  0  0  0  0  0  0  0  0  0  0  0
    3.3306   -0.6719    3.2441 C   0  0  0  0  0  0  0  0  0  0  0  0
    0.7694   -0.1254    5.4165 H   0  0  0  0  0  0  0  0  0  0  0  0
    4.3616   -1.0575    3.2092 H   0  0  0  0  0  0  0  0  0  0  0  0
    3.5918   -0.2624    0.7937 C   0  0  0  0  0  0  0  0  0  0  0  0
    4.0702    0.7231    0.6150 H   0  0  0  0  0  0  0  0  0  0  0  0
    3.0233   -0.5454   -0.1120 H   0  0  0  0  0  0  0  0  0  0  0  0
    4.4104   -0.9979    0.9112 H   0  0  0  0  0  0  0  0  0  0  0  0
   -0.7288    0.7558    3.3813 C   0  0  0  0  0  0  0  0  0  0  0  0
   -1.1761    0.4625    4.3490 H   0  0  0  0  0  0  0  0  0  0  0  0
   -1.3312    0.2936    2.5782 H   0  0  0  0  0  0  0  0  0  0  0  0
   -0.8126    1.8606    3.2997 H   0  0  0  0  0  0  0  0  0  0  0  0
   -3.1569   -1.1941   -0.7994 C   0  0  0  0  0  0  0  0  0  0  0  0
   -3.7073   -2.1526   -0.8570 H   0  0  0  0  0  0  0  0  0  0  0  0
   -3.9174   -0.3857   -0.7648 H   0  0  0  0  0  0  0  0  0  0  0  0
   -2.6029   -1.1963    0.1559 H   0  0  0  0  0  0  0  0  0  0  0  0
    0.9172    0.6658   -3.3384 C   0  0  0  0  0  0  0  0  0  0  0  0
    1.4575    0.4358   -4.2750 H   0  0  0  0  0  0  0  0  0  0  0  0
    1.5841    0.4132   -2.4941 H   0  0  0  0  0  0  0  0  0  0  0  0
    0.7241    1.7591   -3.3247 H   0  0  0  0  0  0  0  0  0  0  0  0
   -2.4300   -2.3053   -5.6400 C   0  0  0  0  0  0  0  0  0  0  0  0
   -3.4799   -2.6456   -5.5570 H   0  0  0  0  0  0  0  0  0  0  0  0
   -1.7999   -3.2038   -5.8134 H   0  0  0  0  0  0  0  0  0  0  0  0
   -2.3403   -1.6695   -6.5434 H   0  0  0  0  0  0  0  0  0  0  0  0
    3.3010   -1.1209    5.7436 C   0  0  0  0  0  0  0  0  0  0  0  0
    4.3309   -1.4842    5.5647 H   0  0  0  0  0  0  0  0  0  0  0  0
    2.7206   -1.9500    6.1988 H   0  0  0  0  0  0  0  0  0  0  0  0
    3.3518   -0.3116    6.5014 H   0  0  0  0  0  0  0  0  0  0  0  0
   -2.0675    2.5170   -0.4720 C   0  0  0  0  0  0  0  0  0  0  0  0
    1.5949    3.0490    0.3226 C   0  0  0  0  0  0  0  0  0  0  0  0
   -2.0224    4.0368   -0.2352 C   0  0  0  0  0  0  0  0  0  0  0  0
   -3.0610    4.4076   -0.1203 H   0  0  0  0  0  0  0  0  0  0  0  0
   -1.5684    4.5813   -1.0865 H   0  0  0  0  0  0  0  0  0  0  0  0
   -1.4749    4.3061    0.6871 H   0  0  0  0  0  0  0  0  0  0  0  0
   -2.8682    2.3078   -1.7747 C   0  0  0  0  0  0  0  0  0  0  0  0
   -3.8288    2.8579   -1.7110 H   0  0  0  0  0  0  0  0  0  0  0  0
   -3.0990    1.2501   -1.9812 H   0  0  0  0  0  0  0  0  0  0  0  0
   -2.3123    2.7033   -2.6503 H   0  0  0  0  0  0  0  0  0  0  0  0
   -2.7938    1.8822    0.7246 C   0  0  0  0  0  0  0  0  0  0  0  0
   -2.4084    2.2775    1.6840 H   0  0  0  0  0  0  0  0  0  0  0  0
   -2.6903    0.7842    0.7438 H   0  0  0  0  0  0  0  0  0  0  0  0
   -3.8749    2.1247    0.6836 H   0  0  0  0  0  0  0  0  0  0  0  0
    1.1302    4.4835    0.0142 C   0  0  0  0  0  0  0  0  0  0  0  0
    0.5308    4.5456   -0.9130 H   0  0  0  0  0  0  0  0  0  0  0  0
    2.0253    5.1217   -0.1306 H   0  0  0  0  0  0  0  0  0  0  0  0
    0.5416    4.9212    0.8445 H   0  0  0  0  0  0  0  0  0  0  0  0
    2.4271    3.1359    1.6196 C   0  0  0  0  0  0  0  0  0  0  0  0
    3.1802    3.9437    1.5199 H   0  0  0  0  0  0  0  0  0  0  0  0
    2.9632    2.2026    1.8574 H   0  0  0  0  0  0  0  0  0  0  0  0
    1.7848    3.3807    2.4909 H   0  0  0  0  0  0  0  0  0  0  0  0
    2.4707    2.5827   -0.8508 C   0  0  0  0  0  0  0  0  0  0  0  0
    2.6749    1.4994   -0.8146 H   0  0  0  0  0  0  0  0  0  0  0  0
    3.4424    3.1163   -0.8328 H   0  0  0  0  0  0  0  0  0  0  0  0
    1.9946    2.8084   -1.8243 H   0  0  0  0  0  0  0  0  0  0  0  0
  1  2  1  0  0  0  0
  1  5  1  0  0  0  0
  3  1  1  0  0  0  0
  4  1  1  0  0  0  0
  5  6  1  0  0  0  0
  5 16  1  0  0  0  0
  5  7  1  0  0  0  0
  7  9  1  0  0  0  0
  7  8  1  0  0  0  0
  9 10  1  0  0  0  0
 11  9  1  0  0  0  0
 12  9  1  0  0  0  0
 13 14  1  0  0  0  0
 13 15  1  0  0  0  0
 13  7  1  0  0  0  0
 16 13  1  0  0  0  0
 16 17  1  0  0  0  0
 16 18  1  0  0  0  0
 19 20  1  0  0  0  0
 19 23  1  0  0  0  0
 20 21  1  0  0  0  0
 21 24  1  0  0  0  0
 21 22  1  0  0  0  0
 22 25  1  0  0  0  0
 22 23  1  0  0  0  0
 26 29  2  0  0  0  0
 29 30  1  0  0  0  0
 27 30  2  0  0  0  0
 27 31  1  0  0  0  0
 28 31  2  0  0  0  0
 26 28  1  0  0  0  0
 30 32  1  0  0  0  0
 31 33  1  0  0  0  0
 23 26  1  0  0  0  0
 34 37  2  0  0  0  0
 37 38  1  0  0  0  0
 35 38  2  0  0  0  0
 35 39  1  0  0  0  0
 36 39  2  0  0  0  0
 34 36  1  0  0  0  0
 38 40  1  0  0  0  0
 39 41  1  0  0  0  0
 20 34  1  0  0  0  0
 42 43  1  0  0  0  0
 42 44  1  0  0  0  0
 42 45  1  0  0  0  0
 36 42  1  0  0  0  0
 46 47  1  0  0  0  0
 46 48  1  0  0  0  0
 46 49  1  0  0  0  0
 37 46  1  0  0  0  0
 50 51  1  0  0  0  0
 50 52  1  0  0  0  0
 50 53  1  0  0  0  0
 29 50  1  0  0  0  0
 54 55  1  0  0  0  0
 54 56  1  0  0  0  0
 54 57  1  0  0  0  0
 28 54  1  0  0  0  0
 58 59  1  0  0  0  0
 58 60  1  0  0  0  0
 58 61  1  0  0  0  0
 27 58  1  0  0  0  0
 62 63  1  0  0  0  0
 62 64  1  0  0  0  0
 62 65  1  0  0  0  0
 35 62  1  0  0  0  0
 22 66  1  0  0  0  0
 21 67  1  0  0  0  0
 68 69  1  0  0  0  0
 68 70  1  0  0  0  0
 68 71  1  0  0  0  0
 66 68  1  0  0  0  0
 72 73  1  0  0  0  0
 72 74  1  0  0  0  0
 72 75  1  0  0  0  0
 66 72  1  0  0  0  0
 76 77  1  0  0  0  0
 76 78  1  0  0  0  0
 76 79  1  0  0  0  0
 66 76  1  0  0  0  0
 80 81  1  0  0  0  0
 80 82  1  0  0  0  0
 80 83  1  0  0  0  0
 67 80  1  0  0  0  0
 84 85  1  0  0  0  0
 84 86  1  0  0  0  0
 84 87  1  0  0  0  0
 67 84  1  0  0  0  0
 88 89  1  0  0  0  0
 88 90  1  0  0  0  0
 88 91  1  0  0  0  0
 67 88  1  0  0  0  0
 16 19  1  0  0  0  0
M  END
>  <DFT-ENERGY>
-2449.50315526

$$$$
