
  CDK     08132419393D

 53 57  0  0  0  0  0  0  0  0999 V2000
    1.6445    0.7912   -2.0033 H   0  0  0  0  0  0  0  0  0  0  0  0
    2.8309    1.0967   -1.8884 C   0  0  0  0  0  0  0  0  0  0  0  0
    3.0270    0.7008   -2.9074 H   0  0  0  0  0  0  0  0  0  0  0  0
    2.6986    2.5506   -1.5901 C   0  0  0  0  0  0  0  0  0  0  0  0
    3.4825    3.0295   -0.9828 H   0  0  0  0  0  0  0  0  0  0  0  0
    2.2629    3.1742   -2.3898 H   0  0  0  0  0  0  0  0  0  0  0  0
    1.3294    1.5206   -0.4173 Ru  0  0  0  0  0  0  0  0  0  0  0  0
    3.0815    0.3302   -0.6509 C   0  0  0  0  0  0  0  0  0  0  0  0
    3.8769    0.6651    0.0273 H   0  0  0  0  0  0  0  0  0  0  0  0
    2.9067   -0.7592   -0.6913 H   0  0  0  0  0  0  0  0  0  0  0  0
    2.6633    2.3050    1.4677 Cl  0  0  0  0  0  0  0  0  0  0  0  0
   -0.4252    1.8751   -1.9961 Cl  0  0  0  0  0  0  0  0  0  0  0  0
   -0.0676    2.1050    0.9590 C   0  0  0  0  0  0  0  0  0  0  0  0
   -0.6790    1.2103    1.7943 N   0  0  0  0  0  0  0  0  0  0  0  0
   -1.6509    1.8457    2.5651 C   0  0  0  0  0  0  0  0  0  0  0  0
   -1.6369    3.1656    2.1956 C   0  0  0  0  0  0  0  0  0  0  0  0
   -0.6634    3.3031    1.2057 N   0  0  0  0  0  0  0  0  0  0  0  0
   -0.3697   -0.1998    1.7838 C   0  0  0  0  0  0  0  0  0  0  0  0
    0.2959   -2.9199    1.6902 C   0  0  0  0  0  0  0  0  0  0  0  0
    0.5596   -0.7032    2.7228 C   0  0  0  0  0  0  0  0  0  0  0  0
   -1.0381   -1.0293    0.8556 C   0  0  0  0  0  0  0  0  0  0  0  0
   -0.6728   -2.3881    0.8231 C   0  0  0  0  0  0  0  0  0  0  0  0
    0.8813   -2.0678    2.6450 C   0  0  0  0  0  0  0  0  0  0  0  0
   -1.1771   -3.0501    0.1024 H   0  0  0  0  0  0  0  0  0  0  0  0
    1.6106   -2.4764    3.3617 H   0  0  0  0  0  0  0  0  0  0  0  0
   -2.1261   -0.4990   -0.0376 C   0  0  0  0  0  0  0  0  0  0  0  0
   -2.6407   -1.3287   -0.5571 H   0  0  0  0  0  0  0  0  0  0  0  0
   -1.7243    0.1982   -0.8034 H   0  0  0  0  0  0  0  0  0  0  0  0
   -2.8822    0.0691    0.5422 H   0  0  0  0  0  0  0  0  0  0  0  0
    1.1694    0.1829    3.7726 C   0  0  0  0  0  0  0  0  0  0  0  0
    0.3902    0.6939    4.3750 H   0  0  0  0  0  0  0  0  0  0  0  0
    1.7869    0.9756    3.2993 H   0  0  0  0  0  0  0  0  0  0  0  0
    1.8063   -0.4050    4.4594 H   0  0  0  0  0  0  0  0  0  0  0  0
    0.6987   -4.3707    1.6089 C   0  0  0  0  0  0  0  0  0  0  0  0
   -0.0473   -4.9719    1.0544 H   0  0  0  0  0  0  0  0  0  0  0  0
    0.8242   -4.8151    2.6164 H   0  0  0  0  0  0  0  0  0  0  0  0
    1.6715   -4.4812    1.0840 H   0  0  0  0  0  0  0  0  0  0  0  0
   -2.2454    4.0029    2.5396 H   0  0  0  0  0  0  0  0  0  0  0  0
   -2.2591    1.3004    3.2892 H   0  0  0  0  0  0  0  0  0  0  0  0
   -0.2699    4.5482    0.5147 C   0  0  0  0  0  0  0  0  0  0  0  0
   -1.4670    5.5007    0.3193 C   0  0  0  0  0  0  0  0  0  0  0  0
   -1.4424    6.4926    1.5208 C   0  0  0  0  0  0  0  0  0  0  0  0
   -0.1728    6.1399    2.3386 C   0  0  0  0  0  0  0  0  0  0  0  0
    0.7229    5.3700    1.3564 C   0  0  0  0  0  0  0  0  0  0  0  0
    0.1648    4.2017   -0.4400 H   0  0  0  0  0  0  0  0  0  0  0  0
   -2.4188    4.9448    0.2146 H   0  0  0  0  0  0  0  0  0  0  0  0
   -1.3175    6.0413   -0.6351 H   0  0  0  0  0  0  0  0  0  0  0  0
   -1.3941    7.5367    1.1523 H   0  0  0  0  0  0  0  0  0  0  0  0
   -2.3619    6.4278    2.1381 H   0  0  0  0  0  0  0  0  0  0  0  0
   -0.4305    5.4861    3.1983 H   0  0  0  0  0  0  0  0  0  0  0  0
    0.3259    7.0331    2.7624 H   0  0  0  0  0  0  0  0  0  0  0  0
    1.4943    4.7288    1.8226 H   0  0  0  0  0  0  0  0  0  0  0  0
    1.2379    6.0735    0.6681 H   0  0  0  0  0  0  0  0  0  0  0  0
  1  2  1  0  0  0  0
  1  7  1  0  0  0  0
  2  3  1  0  0  0  0
  2  4  1  0  0  0  0
  4  5  1  0  0  0  0
  4  6  1  0  0  0  0
  7  8  1  0  0  0  0
  4  7  1  0  0  0  0
  2  8  1  0  0  0  0
  8  9  1  0  0  0  0
  8 10  1  0  0  0  0
  7 11  1  0  0  0  0
  7 12  1  0  0  0  0
 13 14  1  0  0  0  0
 13 17  1  0  0  0  0
 14 15  1  0  0  0  0
 15 16  2  0  0  0  0
 16 17  1  0  0  0  0
 18 21  2  0  0  0  0
 21 22  1  0  0  0  0
 19 22  2  0  0  0  0
 19 23  1  0  0  0  0
 20 23  2  0  0  0  0
 18 20  1  0  0  0  0
 22 24  1  0  0  0  0
 23 25  1  0  0  0  0
 14 18  1  0  0  0  0
 26 27  1  0  0  0  0
 26 28  1  0  0  0  0
 26 29  1  0  0  0  0
 21 26  1  0  0  0  0
 30 31  1  0  0  0  0
 30 32  1  0  0  0  0
 30 33  1  0  0  0  0
 20 30  1  0  0  0  0
 34 35  1  0  0  0  0
 34 36  1  0  0  0  0
 34 37  1  0  0  0  0
 19 34  1  0  0  0  0
 16 38  1  0  0  0  0
 15 39  1  0  0  0  0
 40 45  1  0  0  0  0
 40 41  1  0  0  0  0
 40 44  1  0  0  0  0
 41 46  1  0  0  0  0
 41 47  1  0  0  0  0
 41 42  1  0  0  0  0
 42 48  1  0  0  0  0
 42 49  1  0  0  0  0
 42 43  1  0  0  0  0
 43 50  1  0  0  0  0
 43 51  1  0  0  0  0
 43 44  1  0  0  0  0
 44 52  1  0  0  0  0
 44 53  1  0  0  0  0
 17 40  1  0  0  0  0
  7 13  1  0  0  0  0
M  END
>  <DFT-ENERGY>
-1902.19814696

$$$$
