CpMes-2_A2
  CDK     08122413593D

 67 71  0  0  0  0  0  0  0  0999 V2000
    0.3341   -0.3949   -0.7907 Ru  0  0  0  0  0  0  0  0  0  0  0  0
    2.1119   -0.3949   -2.1799 O   0  0  0  0  0  0  0  0  0  0  0  0
    1.5443    0.5384    0.2134 C   0  0  0  0  0  0  0  0  0  0  0  0
    1.3115    0.8313    1.2361 H   0  0  0  0  0  0  0  0  0  0  0  0
    2.3474   -1.1701   -3.4057 C   0  0  0  0  0  0  0  0  0  0  0  0
    2.7680   -0.4735   -4.1619 H   0  0  0  0  0  0  0  0  0  0  0  0
    0.9236   -1.5968   -3.7347 C   0  0  0  0  0  0  0  0  0  0  0  0
    0.8568   -2.0808   -4.7126 H   0  0  0  0  0  0  0  0  0  0  0  0
    0.5353   -2.3020   -2.9741 H   0  0  0  0  0  0  0  0  0  0  0  0
    0.2499   -0.7148   -3.7367 H   0  0  0  0  0  0  0  0  0  0  0  0
    3.2735   -2.3242   -3.0680 C   0  0  0  0  0  0  0  0  0  0  0  0
    3.2638   -3.0969   -3.8432 H   0  0  0  0  0  0  0  0  0  0  0  0
    4.3098   -2.0044   -2.9161 H   0  0  0  0  0  0  0  0  0  0  0  0
    2.9492   -2.8047   -2.1234 H   0  0  0  0  0  0  0  0  0  0  0  0
    3.1041    0.4035   -1.6749 C   0  0  0  0  0  0  0  0  0  0  0  0
    4.2733    0.7521   -2.3278 C   0  0  0  0  0  0  0  0  0  0  0  0
    4.4921    0.4019   -3.3340 H   0  0  0  0  0  0  0  0  0  0  0  0
    5.1745    1.5832   -1.6703 C   0  0  0  0  0  0  0  0  0  0  0  0
    6.0971    1.8708   -2.1794 H   0  0  0  0  0  0  0  0  0  0  0  0
    4.9244    2.0549   -0.3851 C   0  0  0  0  0  0  0  0  0  0  0  0
    5.6491    2.6999    0.1090 H   0  0  0  0  0  0  0  0  0  0  0  0
    3.7548    1.6946    0.2565 C   0  0  0  0  0  0  0  0  0  0  0  0
    3.5615    2.0492    1.2678 H   0  0  0  0  0  0  0  0  0  0  0  0
    2.8192    0.8792   -0.3829 C   0  0  0  0  0  0  0  0  0  0  0  0
    0.9244   -2.5529   -0.2391 Cl  0  0  0  0  0  0  0  0  0  0  0  0
   -0.5023    1.3385   -2.1718 Cl  0  0  0  0  0  0  0  0  0  0  0  0
   -1.2251   -0.3873    0.4169 C   0  0  0  0  0  0  0  0  0  0  0  0
   -1.5704    0.1979    1.6405 N   0  0  0  0  0  0  0  0  0  0  0  0
   -2.9255   -0.1039    1.9778 C   0  0  0  0  0  0  0  0  0  0  0  0
   -3.4349   -0.8849    0.9697 C   0  0  0  0  0  0  0  0  0  0  0  0
   -2.3971   -1.0747    0.0199 N   0  0  0  0  0  0  0  0  0  0  0  0
   -0.7642    1.0053    2.5238 C   0  0  0  0  0  0  0  0  0  0  0  0
    0.6543    2.5926    4.3403 C   0  0  0  0  0  0  0  0  0  0  0  0
   -0.6735    2.4006    2.3064 C   0  0  0  0  0  0  0  0  0  0  0  0
   -0.1098    0.3939    3.6205 C   0  0  0  0  0  0  0  0  0  0  0  0
    0.5885    1.2023    4.5233 C   0  0  0  0  0  0  0  0  0  0  0  0
    0.0344    3.1808    3.2298 C   0  0  0  0  0  0  0  0  0  0  0  0
    1.0892    0.7474    5.3755 H   0  0  0  0  0  0  0  0  0  0  0  0
    0.1033    4.2561    3.0768 H   0  0  0  0  0  0  0  0  0  0  0  0
   -0.1458   -1.0863    3.7941 C   0  0  0  0  0  0  0  0  0  0  0  0
    0.4676   -1.4363    4.6339 H   0  0  0  0  0  0  0  0  0  0  0  0
    0.2294   -1.5999    2.8873 H   0  0  0  0  0  0  0  0  0  0  0  0
   -1.1694   -1.4532    3.9594 H   0  0  0  0  0  0  0  0  0  0  0  0
   -1.2914    3.0183    1.1014 C   0  0  0  0  0  0  0  0  0  0  0  0
   -2.3814    2.8766    1.0761 H   0  0  0  0  0  0  0  0  0  0  0  0
   -0.8979    2.5512    0.1707 H   0  0  0  0  0  0  0  0  0  0  0  0
   -1.0976    4.0944    1.0151 H   0  0  0  0  0  0  0  0  0  0  0  0
    1.3960    3.4319    5.3283 C   0  0  0  0  0  0  0  0  0  0  0  0
    2.4534    3.1349    5.3903 H   0  0  0  0  0  0  0  0  0  0  0  0
    0.9721    3.3271    6.3380 H   0  0  0  0  0  0  0  0  0  0  0  0
    1.3768    4.5016    5.0815 H   0  0  0  0  0  0  0  0  0  0  0  0
   -4.4192   -1.2989    0.8470 H   0  0  0  0  0  0  0  0  0  0  0  0
   -3.3825    0.2615    2.8786 H   0  0  0  0  0  0  0  0  0  0  0  0
   -2.5025   -1.8686   -1.2392 C   0  0  0  0  0  0  0  0  0  0  0  0
   -3.6032   -2.9530   -1.1867 C   0  0  0  0  0  0  0  0  0  0  0  0
   -4.7518   -2.4537   -2.0770 C   0  0  0  0  0  0  0  0  0  0  0  0
   -4.1145   -1.4831   -3.0880 C   0  0  0  0  0  0  0  0  0  0  0  0
   -2.8417   -0.9331   -2.4268 C   0  0  0  0  0  0  0  0  0  0  0  0
   -1.5002   -2.3704   -1.3940 H   0  0  0  0  0  0  0  0  0  0  0  0
   -3.9373   -3.1829   -0.1624 H   0  0  0  0  0  0  0  0  0  0  0  0
   -3.1931   -3.9030   -1.5799 H   0  0  0  0  0  0  0  0  0  0  0  0
   -5.2658   -3.2874   -2.5820 H   0  0  0  0  0  0  0  0  0  0  0  0
   -5.5168   -1.9348   -1.4728 H   0  0  0  0  0  0  0  0  0  0  0  0
   -4.8084   -0.6702   -3.3597 H   0  0  0  0  0  0  0  0  0  0  0  0
   -3.8689   -2.0069   -4.0286 H   0  0  0  0  0  0  0  0  0  0  0  0
   -2.9865    0.1141   -2.0882 H   0  0  0  0  0  0  0  0  0  0  0  0
   -1.9911   -0.8751   -3.1323 H   0  0  0  0  0  0  0  0  0  0  0  0
  2  1  1  0  0  0  0
  3  1  2  0  0  0  0
  4  3  1  0  0  0  0
  5  2  1  0  0  0  0
  6  5  1  0  0  0  0
  7  5  1  0  0  0  0
  8  7  1  0  0  0  0
  9  7  1  0  0  0  0
 10  7  1  0  0  0  0
 11  5  1  0  0  0  0
 12 11  1  0  0  0  0
 13 11  1  0  0  0  0
 14 11  1  0  0  0  0
 15  2  1  0  0  0  0
 15 24  1  0  0  0  0
 16 15  2  0  0  0  0
 17 16  1  0  0  0  0
 18 16  1  0  0  0  0
 19 18  1  0  0  0  0
 20 18  2  0  0  0  0
 21 20  1  0  0  0  0
 22 20  1  0  0  0  0
 22 24  2  0  0  0  0
 23 22  1  0  0  0  0
 24  3  1  0  0  0  0
  1 25  1  0  0  0  0
  1 26  1  0  0  0  0
 27 28  1  0  0  0  0
 27 31  1  0  0  0  0
 28 29  1  0  0  0  0
 29 30  2  0  0  0  0
 30 31  1  0  0  0  0
 32 35  2  0  0  0  0
 35 36  1  0  0  0  0
 33 36  2  0  0  0  0
 33 37  1  0  0  0  0
 34 37  2  0  0  0  0
 32 34  1  0  0  0  0
 36 38  1  0  0  0  0
 37 39  1  0  0  0  0
 28 32  1  0  0  0  0
 40 41  1  0  0  0  0
 40 42  1  0  0  0  0
 40 43  1  0  0  0  0
 35 40  1  0  0  0  0
 44 45  1  0  0  0  0
 44 46  1  0  0  0  0
 44 47  1  0  0  0  0
 34 44  1  0  0  0  0
 48 49  1  0  0  0  0
 48 50  1  0  0  0  0
 48 51  1  0  0  0  0
 33 48  1  0  0  0  0
 30 52  1  0  0  0  0
 29 53  1  0  0  0  0
 54 59  1  0  0  0  0
 54 55  1  0  0  0  0
 54 58  1  0  0  0  0
 55 60  1  0  0  0  0
 55 61  1  0  0  0  0
 55 56  1  0  0  0  0
 56 62  1  0  0  0  0
 56 63  1  0  0  0  0
 56 57  1  0  0  0  0
 57 64  1  0  0  0  0
 57 65  1  0  0  0  0
 57 58  1  0  0  0  0
 58 66  1  0  0  0  0
 58 67  1  0  0  0  0
 31 54  1  0  0  0  0
  1 27  1  0  0  0  0
M  END
> <FrozenCore-PM6_ENERGY>
-27.982

> <RMSD_CONF_CG-CS>
0.724215

> <RMSD_CONF_GO-CS>
0.000000

> <UID>


> <DESCRIPTOR_DEFINITION_1>
desc1=( echo "1 * ( e( $hartree_to_kcalmol * ( ( $freeEnergyZ - $freeEnergyD ) - ( $freeEnergyX + 2*$G_Ethene - $freeEnergyD - 2*$G_Propene ) - $DDG_reference_HGII ) / $kT ) ) " | bc -l )

> <DESCRIPTOR_DEFINITION_2>
desc1=( echo "1 * ( e( $hartree_to_kcalmol * ( ( $freeEnergyZ - $freeEnergyD ) - ( $freeEnergyX + 2*$G_Ethene - $freeEnergyD - 2*$G_Propene ) - $DDG_reference_HGII ) / $kT ) ) " | bc -l )

> <DESCRIPTOR_DEFINITION_3>
desc1=( echo "1 * ( e( $hartree_to_kcalmol * ( ( $freeEnergyZ - $freeEnergyD ) - ( $freeEnergyX + 2*$G_Ethene - $freeEnergyD - 2*$G_Propene ) - $DDG_reference_HGII ) / $kT ) ) " | bc -l )

> <WEIGHT_DEFINITION_1>
w1=$( echo "1 / ( 1 + e( $hartree_to_kcalmol * ( ( ( $freeEnergyX + 2*$G_Ethene - $freeEnergyD - 2*$G_Propene ) ) - ( $DG_referenceProductionBarrier + $magnitude4 ) ) / $kT ) )" | bc -l )

> <WEIGHT_DEFINITION_2>
w1=$( echo "1 / ( 1 + e( $hartree_to_kcalmol * ( ( ( $freeEnergyX + 2*$G_Ethene - $freeEnergyD - 2*$G_Propene ) ) - ( $DG_referenceProductionBarrier + $magnitude4 ) ) / $kT ) )" | bc -l )

> <WEIGHT_DEFINITION_3>
w1=$( echo "1 / ( 1 + e( $hartree_to_kcalmol * ( ( ( $freeEnergyX + 2*$G_Ethene - $freeEnergyD - 2*$G_Propene ) ) - ( $DG_referenceProductionBarrier + $magnitude4 ) ) / $kT ) )" | bc -l )

> <WEIGHT_DEFINITION_4>
w1=$( echo "1 / ( 1 + e( $hartree_to_kcalmol * ( ( ( $freeEnergyX + 2*$G_Ethene - $freeEnergyD - 2*$G_Propene ) ) - ( $DG_referenceProductionBarrier + $magnitude4 ) ) / $kT ) )" | bc -l )

> <CALCULATION_OF_OVERALL_FITNESS>
fitness=$( echo "( $desc1 + $desc2 + $desc3 ) * ( $w1 * $w2 * $w3 * $w4 )" | bc -l )

> <freeEnergyA>
-2247.47680263

> <freeEnergyF>
-2247.46512857

> <freeEnergyE>
-2247.47680263

> <freeEnergyC>
-1902.21711805

> <freeEnergyL>
-769.611923939

> <freeEnergyX>
-1980.7444355

> <freeEnergyZ>
-1902.19814789

> <freeEnergyD>
-1902.23571371

> <G_Propene>
-117.738020895

> <G_Ethene>
-78.4716324751

> <G_HoveydaProd>
-502.204109499

> <G_SIMes>
-924.27249048

> <G_HG_RuCl2_SIMes>
-2402.13728523

> <DG_referenceProductionBarrier>
0.01468968

> <DG_referencePrecursorStabilityHII>
-0.0052201621

> <DG_referencePrecursorStabilityHI>
0.0117775312

> <DDG_referencePrecursorStability>
.0169976933

> <DG_referenceSynt>
0.0226072217

> <hartree_to_kcalmol>
627.49467516

> <boltzmann_constant>
0.0000000000000000000000138066

> <avogadro_number>
602214000000000000000000

> <jmol_to_kcalmol>
0.00023901

> <temp>
313.15

> <kT>
.6223089948281258706000000000

> <magnitude1>
1.43290809

> <magnitude2>
2.86581618

> <magnitude3>
4.29872427

> <magnitude4>
5.73163236

> <DFT_IDENTIFIER>
1723666195210

> <DFT_MACHINE>
158.39.114.73

> <XTB_IDENTIFIER>
NREC

> <XTB_MACHINE>
NREC

> <DESCRIPTOR_1>
.00015176309746689845

> <DESCRIPTOR_2>
8.477936357810408232

> <DESCRIPTOR_3>
0.0000000001

> <WEIGHT_1>
.99939627007510748380

> <WEIGHT_2>
.99999978397568625409

> <WEIGHT_3>
.99999999998843239494

> <WEIGHT_4>
.99922834863993961434

> <FITNESS>
8.46642963789966005113

$$$$
