
  CDK     08142421103D

 53 56  0  0  0  0  0  0  0  0999 V2000
    1.4827    0.6474   -0.3680 Ru  0  0  0  0  0  0  0  0  0  0  0  0
    3.0854    0.7622   -1.4958 C   0  0  0  0  0  0  0  0  0  0  0  0
    2.9481    1.2195   -2.4922 H   0  0  0  0  0  0  0  0  0  0  0  0
    3.3903    1.8261   -0.3674 C   0  0  0  0  0  0  0  0  0  0  0  0
    3.5294    2.7882   -0.8934 H   0  0  0  0  0  0  0  0  0  0  0  0
    2.2532    2.0860    0.7036 C   0  0  0  0  0  0  0  0  0  0  0  0
    2.5477    1.7934    1.7282 H   0  0  0  0  0  0  0  0  0  0  0  0
    1.7763    3.0774    0.5993 H   0  0  0  0  0  0  0  0  0  0  0  0
    4.2789    1.4690    0.1841 H   0  0  0  0  0  0  0  0  0  0  0  0
    3.7552   -0.1158   -1.4489 H   0  0  0  0  0  0  0  0  0  0  0  0
    0.4824    2.2802   -1.8251 Cl  0  0  0  0  0  0  0  0  0  0  0  0
    2.5621   -1.0126    0.9447 Cl  0  0  0  0  0  0  0  0  0  0  0  0
   -0.2689   -0.3239   -0.3614 C   0  0  0  0  0  0  0  0  0  0  0  0
   -1.2040   -0.3112    0.6350 N   0  0  0  0  0  0  0  0  0  0  0  0
   -2.3283   -1.0450    0.2503 C   0  0  0  0  0  0  0  0  0  0  0  0
   -2.0741   -1.5279   -1.0057 C   0  0  0  0  0  0  0  0  0  0  0  0
   -0.8040   -1.0735   -1.3633 N   0  0  0  0  0  0  0  0  0  0  0  0
   -1.0155    0.3922    1.8802 C   0  0  0  0  0  0  0  0  0  0  0  0
   -0.5407    1.7809    4.2618 C   0  0  0  0  0  0  0  0  0  0  0  0
   -1.3363    1.7655    1.9343 C   0  0  0  0  0  0  0  0  0  0  0  0
   -0.5170   -0.3234    2.9911 C   0  0  0  0  0  0  0  0  0  0  0  0
   -0.2850    0.3999    4.1719 C   0  0  0  0  0  0  0  0  0  0  0  0
   -1.0779    2.4389    3.1426 C   0  0  0  0  0  0  0  0  0  0  0  0
    0.1118   -0.1366    5.0475 H   0  0  0  0  0  0  0  0  0  0  0  0
   -1.3156    3.5119    3.2076 H   0  0  0  0  0  0  0  0  0  0  0  0
   -0.2266   -1.7959    2.9043 C   0  0  0  0  0  0  0  0  0  0  0  0
    0.0191   -2.2067    3.9011 H   0  0  0  0  0  0  0  0  0  0  0  0
    0.6408   -1.9674    2.2309 H   0  0  0  0  0  0  0  0  0  0  0  0
   -1.0863   -2.3639    2.4947 H   0  0  0  0  0  0  0  0  0  0  0  0
   -1.9431    2.4801    0.7583 C   0  0  0  0  0  0  0  0  0  0  0  0
   -2.8191    1.9294    0.3583 H   0  0  0  0  0  0  0  0  0  0  0  0
   -1.2197    2.5751   -0.0816 H   0  0  0  0  0  0  0  0  0  0  0  0
   -2.2760    3.4942    1.0482 H   0  0  0  0  0  0  0  0  0  0  0  0
   -0.2392    2.5322    5.5342 C   0  0  0  0  0  0  0  0  0  0  0  0
    0.8544    2.6869    5.6510 H   0  0  0  0  0  0  0  0  0  0  0  0
   -0.5819    1.9722    6.4273 H   0  0  0  0  0  0  0  0  0  0  0  0
   -0.7201    3.5291    5.5444 H   0  0  0  0  0  0  0  0  0  0  0  0
   -2.6806   -2.1491   -1.6672 H   0  0  0  0  0  0  0  0  0  0  0  0
   -3.1936   -1.1501    0.9074 H   0  0  0  0  0  0  0  0  0  0  0  0
   -0.1305   -1.2722   -2.6480 C   0  0  0  0  0  0  0  0  0  0  0  0
    0.0698   -2.7557   -3.0475 C   0  0  0  0  0  0  0  0  0  0  0  0
   -0.0520   -2.7766   -4.5966 C   0  0  0  0  0  0  0  0  0  0  0  0
   -0.1468   -1.2939   -5.0249 C   0  0  0  0  0  0  0  0  0  0  0  0
   -0.8413   -0.6146   -3.8399 C   0  0  0  0  0  0  0  0  0  0  0  0
    0.8561   -0.7786   -2.5216 H   0  0  0  0  0  0  0  0  0  0  0  0
   -0.7066   -3.3880   -2.5718 H   0  0  0  0  0  0  0  0  0  0  0  0
    1.0454   -3.1296   -2.6820 H   0  0  0  0  0  0  0  0  0  0  0  0
    0.7928   -3.3027   -5.0815 H   0  0  0  0  0  0  0  0  0  0  0  0
   -0.9757   -3.3129   -4.8970 H   0  0  0  0  0  0  0  0  0  0  0  0
   -0.6793   -1.1524   -5.9852 H   0  0  0  0  0  0  0  0  0  0  0  0
    0.8703   -0.8639   -5.1481 H   0  0  0  0  0  0  0  0  0  0  0  0
   -1.9226   -0.8756   -3.8226 H   0  0  0  0  0  0  0  0  0  0  0  0
   -0.7463    0.4874   -3.8068 H   0  0  0  0  0  0  0  0  0  0  0  0
  2  4  1  0  0  0  0
  2  1  1  0  0  0  0
  2  3  1  0  0  0  0
  4  6  1  0  0  0  0
  4  5  1  0  0  0  0
  6  1  1  0  0  0  0
  6  8  1  0  0  0  0
  7  6  1  0  0  0  0
  9  4  1  0  0  0  0
 10  2  1  0  0  0  0
  1 11  1  0  0  0  0
  1 12  1  0  0  0  0
 13 14  1  0  0  0  0
 13 17  1  0  0  0  0
 14 15  1  0  0  0  0
 15 16  2  0  0  0  0
 16 17  1  0  0  0  0
 18 21  2  0  0  0  0
 21 22  1  0  0  0  0
 19 22  2  0  0  0  0
 19 23  1  0  0  0  0
 20 23  2  0  0  0  0
 18 20  1  0  0  0  0
 22 24  1  0  0  0  0
 23 25  1  0  0  0  0
 14 18  1  0  0  0  0
 26 27  1  0  0  0  0
 26 28  1  0  0  0  0
 26 29  1  0  0  0  0
 21 26  1  0  0  0  0
 30 31  1  0  0  0  0
 30 32  1  0  0  0  0
 30 33  1  0  0  0  0
 20 30  1  0  0  0  0
 34 35  1  0  0  0  0
 34 36  1  0  0  0  0
 34 37  1  0  0  0  0
 19 34  1  0  0  0  0
 16 38  1  0  0  0  0
 15 39  1  0  0  0  0
 40 45  1  0  0  0  0
 40 41  1  0  0  0  0
 40 44  1  0  0  0  0
 41 46  1  0  0  0  0
 41 47  1  0  0  0  0
 41 42  1  0  0  0  0
 42 48  1  0  0  0  0
 42 49  1  0  0  0  0
 42 43  1  0  0  0  0
 43 50  1  0  0  0  0
 43 51  1  0  0  0  0
 43 44  1  0  0  0  0
 44 52  1  0  0  0  0
 44 53  1  0  0  0  0
 17 40  1  0  0  0  0
  1 13  1  0  0  0  0
M  END
>  <DFT-ENERGY>
-1902.23571379

$$$$
