
  CDK     08142421593D

 74 77  0  0  0  0  0  0  0  0999 V2000
    1.4146   -1.6824    0.1782 Ru  0  0  0  0  0  0  0  0  0  0  0  0
    2.8035   -1.8136   -1.2059 C   0  0  0  0  0  0  0  0  0  0  0  0
    2.4463   -2.0441   -2.2229 H   0  0  0  0  0  0  0  0  0  0  0  0
    3.1288   -3.1031   -0.3502 C   0  0  0  0  0  0  0  0  0  0  0  0
    2.9869   -3.9723   -1.0174 H   0  0  0  0  0  0  0  0  0  0  0  0
    2.2187   -3.3390    0.9123 C   0  0  0  0  0  0  0  0  0  0  0  0
    2.7585   -3.2171    1.8675 H   0  0  0  0  0  0  0  0  0  0  0  0
    1.5794   -4.2348    0.8265 H   0  0  0  0  0  0  0  0  0  0  0  0
    4.1625   -2.9831    0.0229 H   0  0  0  0  0  0  0  0  0  0  0  0
    3.5864   -1.0370   -1.1471 H   0  0  0  0  0  0  0  0  0  0  0  0
   -0.0521   -3.1310   -1.0786 Cl  0  0  0  0  0  0  0  0  0  0  0  0
    2.9863   -0.5226    1.5440 Cl  0  0  0  0  0  0  0  0  0  0  0  0
   -0.1835   -0.5883    0.4971 C   0  0  0  0  0  0  0  0  0  0  0  0
   -2.4446   -0.3922    1.6797 C   0  0  0  0  0  0  0  0  0  0  0  0
   -2.0446    0.7450   -0.5339 C   0  0  0  0  0  0  0  0  0  0  0  0
   -2.5698    0.9102    0.9005 C   0  0  0  0  0  0  0  0  0  0  0  0
   -0.5843    0.2929   -0.4338 N   0  0  0  0  0  0  0  0  0  0  0  0
   -0.9719   -0.8375    1.7887 C   0  0  0  0  0  0  0  0  0  0  0  0
   -3.0404   -1.1897    1.1929 H   0  0  0  0  0  0  0  0  0  0  0  0
   -2.0150    1.7234    1.4108 H   0  0  0  0  0  0  0  0  0  0  0  0
   -2.8673   -0.2681    2.6948 H   0  0  0  0  0  0  0  0  0  0  0  0
   -3.6286    1.2347    0.8429 H   0  0  0  0  0  0  0  0  0  0  0  0
   -0.8714   -2.3348    2.1795 C   0  0  0  0  0  0  0  0  0  0  0  0
   -0.2520    0.0074    2.8973 C   0  0  0  0  0  0  0  0  0  0  0  0
   -2.1601    2.0614   -1.3041 C   0  0  0  0  0  0  0  0  0  0  0  0
   -3.2364    2.2855   -1.4412 H   0  0  0  0  0  0  0  0  0  0  0  0
   -1.6956    1.9993   -2.3040 H   0  0  0  0  0  0  0  0  0  0  0  0
   -1.6987    2.9098   -0.7703 H   0  0  0  0  0  0  0  0  0  0  0  0
   -2.8832   -0.3466   -1.2416 C   0  0  0  0  0  0  0  0  0  0  0  0
   -3.9463   -0.2275   -0.9501 H   0  0  0  0  0  0  0  0  0  0  0  0
   -2.5500   -1.3648   -0.9661 H   0  0  0  0  0  0  0  0  0  0  0  0
   -2.8332   -0.2566   -2.3383 H   0  0  0  0  0  0  0  0  0  0  0  0
    0.4310    0.7907   -1.3734 C   0  0  0  0  0  0  0  0  0  0  0  0
    2.3516    1.9097   -3.1041 C   0  0  0  0  0  0  0  0  0  0  0  0
    1.3463    1.7755   -0.8743 C   0  0  0  0  0  0  0  0  0  0  0  0
    0.4927    0.3560   -2.7314 C   0  0  0  0  0  0  0  0  0  0  0  0
    1.4675    0.9374   -3.5665 C   0  0  0  0  0  0  0  0  0  0  0  0
    2.2874    2.3141   -1.7692 C   0  0  0  0  0  0  0  0  0  0  0  0
    1.5236    0.6108   -4.6141 H   0  0  0  0  0  0  0  0  0  0  0  0
    2.9940    3.0687   -1.4029 H   0  0  0  0  0  0  0  0  0  0  0  0
    3.0979    2.3500   -3.7814 H   0  0  0  0  0  0  0  0  0  0  0  0
   -0.4323   -0.6652   -3.3884 C   0  0  0  0  0  0  0  0  0  0  0  0
   -1.0033   -1.1730   -2.5933 H   0  0  0  0  0  0  0  0  0  0  0  0
    1.3814    2.2750    0.5713 C   0  0  0  0  0  0  0  0  0  0  0  0
    1.1314    1.4149    1.2174 H   0  0  0  0  0  0  0  0  0  0  0  0
    2.7775    2.7506    1.0074 C   0  0  0  0  0  0  0  0  0  0  0  0
    3.0355    3.7372    0.5681 H   0  0  0  0  0  0  0  0  0  0  0  0
    3.5584    2.0146    0.7450 H   0  0  0  0  0  0  0  0  0  0  0  0
    2.7904    2.8709    2.1088 H   0  0  0  0  0  0  0  0  0  0  0  0
    0.3785    3.4098    0.8442 C   0  0  0  0  0  0  0  0  0  0  0  0
   -0.6727    3.0799    0.7714 H   0  0  0  0  0  0  0  0  0  0  0  0
    0.5232    4.2503    0.1338 H   0  0  0  0  0  0  0  0  0  0  0  0
    0.5286    3.8045    1.8699 H   0  0  0  0  0  0  0  0  0  0  0  0
    0.3282   -1.7702   -4.1427 C   0  0  0  0  0  0  0  0  0  0  0  0
    0.9743   -2.3500   -3.4607 H   0  0  0  0  0  0  0  0  0  0  0  0
    0.9370   -1.3678   -4.9779 H   0  0  0  0  0  0  0  0  0  0  0  0
   -0.4008   -2.4834   -4.5773 H   0  0  0  0  0  0  0  0  0  0  0  0
   -1.3936    0.0262   -4.3772 C   0  0  0  0  0  0  0  0  0  0  0  0
   -2.1166   -0.7082   -4.7877 H   0  0  0  0  0  0  0  0  0  0  0  0
   -0.8329    0.4568   -5.2325 H   0  0  0  0  0  0  0  0  0  0  0  0
   -1.9708    0.8525   -3.9195 H   0  0  0  0  0  0  0  0  0  0  0  0
    0.8384   -0.1892    2.8371 H   0  0  0  0  0  0  0  0  0  0  0  0
   -0.3888    1.0873    2.6868 H   0  0  0  0  0  0  0  0  0  0  0  0
   -0.7497   -0.3101    4.3148 C   0  0  0  0  0  0  0  0  0  0  0  0
   -1.8009    0.0303    4.4468 H   0  0  0  0  0  0  0  0  0  0  0  0
   -0.1467    0.2814    5.0348 H   0  0  0  0  0  0  0  0  0  0  0  0
   -1.3677   -2.9514    1.4053 H   0  0  0  0  0  0  0  0  0  0  0  0
    0.2018   -2.6292    2.1569 H   0  0  0  0  0  0  0  0  0  0  0  0
   -1.4061   -2.6296    3.5842 C   0  0  0  0  0  0  0  0  0  0  0  0
   -1.3009   -3.7146    3.7902 H   0  0  0  0  0  0  0  0  0  0  0  0
   -2.4956   -2.4110    3.6375 H   0  0  0  0  0  0  0  0  0  0  0  0
   -0.6570   -1.8049    4.6362 C   0  0  0  0  0  0  0  0  0  0  0  0
    0.4133   -2.1106    4.6408 H   0  0  0  0  0  0  0  0  0  0  0  0
   -1.0523   -2.0087    5.6528 H   0  0  0  0  0  0  0  0  0  0  0  0
  2  4  1  0  0  0  0
  2  1  1  0  0  0  0
  2  3  1  0  0  0  0
  4  6  1  0  0  0  0
  4  5  1  0  0  0  0
  6  1  1  0  0  0  0
  6  8  1  0  0  0  0
  7  6  1  0  0  0  0
  9  4  1  0  0  0  0
 10  2  1  0  0  0  0
  1 11  1  0  0  0  0
  1 12  1  0  0  0  0
 13 17  1  0  0  0  0
 13 18  1  0  0  0  0
 14 19  1  0  0  0  0
 14 21  1  0  0  0  0
 14 16  1  0  0  0  0
 14 18  1  0  0  0  0
 15 17  1  0  0  0  0
 15 16  1  0  0  0  0
 15 25  1  0  0  0  0
 15 29  1  0  0  0  0
 16 20  1  0  0  0  0
 16 22  1  0  0  0  0
 17 33  1  0  0  0  0
 18 23  1  0  0  0  0
 18 24  1  0  0  0  0
 23 67  1  0  0  0  0
 23 68  1  0  0  0  0
 23 69  1  0  0  0  0
 24 62  1  0  0  0  0
 24 63  1  0  0  0  0
 24 64  1  0  0  0  0
 25 26  1  0  0  0  0
 25 27  1  0  0  0  0
 25 28  1  0  0  0  0
 29 30  1  0  0  0  0
 29 31  1  0  0  0  0
 29 32  1  0  0  0  0
 33 36  2  0  0  0  0
 33 35  1  0  0  0  0
 34 37  2  0  0  0  0
 34 38  1  0  0  0  0
 34 41  1  0  0  0  0
 35 38  2  0  0  0  0
 35 44  1  0  0  0  0
 36 37  1  0  0  0  0
 36 42  1  0  0  0  0
 37 39  1  0  0  0  0
 38 40  1  0  0  0  0
 42 43  1  0  0  0  0
 42 54  1  0  0  0  0
 42 58  1  0  0  0  0
 44 45  1  0  0  0  0
 44 46  1  0  0  0  0
 44 50  1  0  0  0  0
 46 47  1  0  0  0  0
 46 48  1  0  0  0  0
 46 49  1  0  0  0  0
 50 51  1  0  0  0  0
 50 52  1  0  0  0  0
 50 53  1  0  0  0  0
 54 55  1  0  0  0  0
 54 56  1  0  0  0  0
 54 57  1  0  0  0  0
 58 59  1  0  0  0  0
 58 60  1  0  0  0  0
 58 61  1  0  0  0  0
 64 65  1  0  0  0  0
 64 66  1  0  0  0  0
 64 72  1  0  0  0  0
 69 70  1  0  0  0  0
 69 71  1  0  0  0  0
 69 72  1  0  0  0  0
 72 73  1  0  0  0  0
 72 74  1  0  0  0  0
  1 13  1  0  0  0  0
M  END
>  <DFT-ENERGY>
-2122.94947407

$$$$
