CAACCyDIPP-3_A2
  CDK     08122412173D

 88 92  0  0  0  0  0  0  0  0999 V2000
    0.7496   -0.5724   -1.2489 Ru  0  0  0  0  0  0  0  0  0  0  0  0
    2.5274   -0.5724   -2.6381 O   0  0  0  0  0  0  0  0  0  0  0  0
    1.9598    0.3609   -0.2448 C   0  0  0  0  0  0  0  0  0  0  0  0
    1.7270    0.6538    0.7779 H   0  0  0  0  0  0  0  0  0  0  0  0
    2.7629   -1.3476   -3.8639 C   0  0  0  0  0  0  0  0  0  0  0  0
    3.1930   -0.6521   -4.6163 H   0  0  0  0  0  0  0  0  0  0  0  0
    1.3444   -1.7714   -4.2130 C   0  0  0  0  0  0  0  0  0  0  0  0
    1.2915   -2.2549   -5.1920 H   0  0  0  0  0  0  0  0  0  0  0  0
    0.9437   -2.4771   -3.4582 H   0  0  0  0  0  0  0  0  0  0  0  0
    0.6703   -0.8909   -4.2228 H   0  0  0  0  0  0  0  0  0  0  0  0
    3.6841   -2.5064   -3.5256 C   0  0  0  0  0  0  0  0  0  0  0  0
    3.6847   -3.2709   -4.3088 H   0  0  0  0  0  0  0  0  0  0  0  0
    4.7180   -2.1880   -3.3564 H   0  0  0  0  0  0  0  0  0  0  0  0
    3.3476   -2.9964   -2.5906 H   0  0  0  0  0  0  0  0  0  0  0  0
    3.5196    0.2260   -2.1331 C   0  0  0  0  0  0  0  0  0  0  0  0
    4.6887    0.5747   -2.7861 C   0  0  0  0  0  0  0  0  0  0  0  0
    4.9080    0.2226   -3.7915 H   0  0  0  0  0  0  0  0  0  0  0  0
    5.5899    1.4058   -2.1286 C   0  0  0  0  0  0  0  0  0  0  0  0
    6.5130    1.6925   -2.6370 H   0  0  0  0  0  0  0  0  0  0  0  0
    5.3399    1.8774   -0.8433 C   0  0  0  0  0  0  0  0  0  0  0  0
    6.0654    2.5208   -0.3486 H   0  0  0  0  0  0  0  0  0  0  0  0
    4.1702    1.5171   -0.2017 C   0  0  0  0  0  0  0  0  0  0  0  0
    3.9770    1.8717    0.8096 H   0  0  0  0  0  0  0  0  0  0  0  0
    3.2347    0.7017   -0.8411 C   0  0  0  0  0  0  0  0  0  0  0  0
    1.3491   -2.7637   -0.6888 Cl  0  0  0  0  0  0  0  0  0  0  0  0
   -0.0818    1.1508   -2.6218 Cl  0  0  0  0  0  0  0  0  0  0  0  0
   -0.9711   -0.3614   -0.2869 C   0  0  0  0  0  0  0  0  0  0  0  0
   -3.4437   -0.7277   -0.8570 C   0  0  0  0  0  0  0  0  0  0  0  0
   -2.8440    1.0046    0.8527 C   0  0  0  0  0  0  0  0  0  0  0  0
   -3.7974   -0.1588    0.5102 C   0  0  0  0  0  0  0  0  0  0  0  0
   -1.3867    0.5593    0.6282 N   0  0  0  0  0  0  0  0  0  0  0  0
   -2.0330   -1.3610   -0.8207 C   0  0  0  0  0  0  0  0  0  0  0  0
   -3.4797    0.0579   -1.6374 H   0  0  0  0  0  0  0  0  0  0  0  0
   -3.7460   -0.9503    1.2846 H   0  0  0  0  0  0  0  0  0  0  0  0
   -4.1956   -1.4830   -1.1614 H   0  0  0  0  0  0  0  0  0  0  0  0
   -4.8448    0.1972    0.5270 H   0  0  0  0  0  0  0  0  0  0  0  0
   -1.7021   -1.8812   -2.2467 C   0  0  0  0  0  0  0  0  0  0  0  0
   -2.0093   -2.5805    0.1469 C   0  0  0  0  0  0  0  0  0  0  0  0
   -3.0806    1.4105    2.3162 C   0  0  0  0  0  0  0  0  0  0  0  0
   -4.1274    1.6985    2.4687 H   0  0  0  0  0  0  0  0  0  0  0  0
   -2.4695    2.2712    2.6185 H   0  0  0  0  0  0  0  0  0  0  0  0
   -2.8577    0.5980    3.0179 H   0  0  0  0  0  0  0  0  0  0  0  0
   -3.1406    2.1979   -0.0717 C   0  0  0  0  0  0  0  0  0  0  0  0
   -4.1856    2.2156   -0.3947 H   0  0  0  0  0  0  0  0  0  0  0  0
   -2.5178    2.1775   -0.9844 H   0  0  0  0  0  0  0  0  0  0  0  0
   -2.9420    3.1617    0.4224 H   0  0  0  0  0  0  0  0  0  0  0  0
   -0.4428    1.2220    1.5364 C   0  0  0  0  0  0  0  0  0  0  0  0
    1.1817    2.4490    3.4721 C   0  0  0  0  0  0  0  0  0  0  0  0
   -0.1020    0.5228    2.7280 C   0  0  0  0  0  0  0  0  0  0  0  0
    0.0514    2.5274    1.3093 C   0  0  0  0  0  0  0  0  0  0  0  0
    0.8556    3.1221    2.2993 C   0  0  0  0  0  0  0  0  0  0  0  0
    0.7142    1.1501    3.6764 C   0  0  0  0  0  0  0  0  0  0  0  0
    1.2343    4.1322    2.1361 H   0  0  0  0  0  0  0  0  0  0  0  0
    0.9904    0.6165    4.5862 H   0  0  0  0  0  0  0  0  0  0  0  0
    1.8045    2.9294    4.2254 H   0  0  0  0  0  0  0  0  0  0  0  0
   -0.2019    3.3346    0.0470 C   0  0  0  0  0  0  0  0  0  0  0  0
   -0.8318    2.7302   -0.6652 H   0  0  0  0  0  0  0  0  0  0  0  0
   -0.5500   -0.9067    2.9939 C   0  0  0  0  0  0  0  0  0  0  0  0
   -1.3999   -1.1814    2.3090 H   0  0  0  0  0  0  0  0  0  0  0  0
    0.6187   -1.8470    2.6819 C   0  0  0  0  0  0  0  0  0  0  0  0
    1.4702   -1.6924    3.3515 H   0  0  0  0  0  0  0  0  0  0  0  0
    0.9846   -1.6909    1.6492 H   0  0  0  0  0  0  0  0  0  0  0  0
    0.3251   -2.8993    2.7570 H   0  0  0  0  0  0  0  0  0  0  0  0
   -1.0568   -1.0919    4.4302 C   0  0  0  0  0  0  0  0  0  0  0  0
   -1.8266   -0.3555    4.6841 H   0  0  0  0  0  0  0  0  0  0  0  0
   -0.2510   -0.9920    5.1669 H   0  0  0  0  0  0  0  0  0  0  0  0
   -1.4875   -2.0906    4.5645 H   0  0  0  0  0  0  0  0  0  0  0  0
    1.1126    3.6406   -0.6807 C   0  0  0  0  0  0  0  0  0  0  0  0
    1.5788    2.7093   -1.0438 H   0  0  0  0  0  0  0  0  0  0  0  0
    1.8378    4.1663   -0.0563 H   0  0  0  0  0  0  0  0  0  0  0  0
    0.9293    4.2508   -1.5735 H   0  0  0  0  0  0  0  0  0  0  0  0
   -0.9523    4.6324    0.3836 C   0  0  0  0  0  0  0  0  0  0  0  0
   -1.1527    5.2100   -0.5263 H   0  0  0  0  0  0  0  0  0  0  0  0
   -0.3803    5.2779    1.0574 H   0  0  0  0  0  0  0  0  0  0  0  0
   -1.9187    4.4177    0.8617 H   0  0  0  0  0  0  0  0  0  0  0  0
   -0.9775   -2.9960    0.1837 H   0  0  0  0  0  0  0  0  0  0  0  0
   -2.2348   -2.2500    1.1820 H   0  0  0  0  0  0  0  0  0  0  0  0
   -2.9836   -3.6845   -0.2851 C   0  0  0  0  0  0  0  0  0  0  0  0
   -4.0276   -3.3345   -0.1735 H   0  0  0  0  0  0  0  0  0  0  0  0
   -2.8769   -4.5522    0.3943 H   0  0  0  0  0  0  0  0  0  0  0  0
   -1.6645   -1.0361   -2.9654 H   0  0  0  0  0  0  0  0  0  0  0  0
   -0.7120   -2.4069   -2.2836 H   0  0  0  0  0  0  0  0  0  0  0  0
   -2.7238   -2.9408   -2.7036 C   0  0  0  0  0  0  0  0  0  0  0  0
   -2.4662   -3.2863   -3.7223 H   0  0  0  0  0  0  0  0  0  0  0  0
   -3.7356   -2.4998   -2.7800 H   0  0  0  0  0  0  0  0  0  0  0  0
   -2.7359   -4.1318   -1.7334 C   0  0  0  0  0  0  0  0  0  0  0  0
   -1.7650   -4.6646   -1.7910 H   0  0  0  0  0  0  0  0  0  0  0  0
   -3.5063   -4.8625   -2.0399 H   0  0  0  0  0  0  0  0  0  0  0  0
  2  1  1  0  0  0  0
  3  1  2  0  0  0  0
  4  3  1  0  0  0  0
  5  2  1  0  0  0  0
  6  5  1  0  0  0  0
  7  5  1  0  0  0  0
  8  7  1  0  0  0  0
  9  7  1  0  0  0  0
 10  7  1  0  0  0  0
 11  5  1  0  0  0  0
 12 11  1  0  0  0  0
 13 11  1  0  0  0  0
 14 11  1  0  0  0  0
 15  2  1  0  0  0  0
 15 24  1  0  0  0  0
 16 15  2  0  0  0  0
 17 16  1  0  0  0  0
 18 16  1  0  0  0  0
 19 18  1  0  0  0  0
 20 18  2  0  0  0  0
 21 20  1  0  0  0  0
 22 20  1  0  0  0  0
 22 24  2  0  0  0  0
 23 22  1  0  0  0  0
 24  3  1  0  0  0  0
  1 25  1  0  0  0  0
  1 26  1  0  0  0  0
 27 31  1  0  0  0  0
 27 32  1  0  0  0  0
 28 33  1  0  0  0  0
 28 35  1  0  0  0  0
 28 30  1  0  0  0  0
 28 32  1  0  0  0  0
 29 31  1  0  0  0  0
 29 30  1  0  0  0  0
 29 39  1  0  0  0  0
 29 43  1  0  0  0  0
 30 34  1  0  0  0  0
 30 36  1  0  0  0  0
 31 47  1  0  0  0  0
 32 37  1  0  0  0  0
 32 38  1  0  0  0  0
 37 81  1  0  0  0  0
 37 82  1  0  0  0  0
 37 83  1  0  0  0  0
 38 76  1  0  0  0  0
 38 77  1  0  0  0  0
 38 78  1  0  0  0  0
 39 40  1  0  0  0  0
 39 41  1  0  0  0  0
 39 42  1  0  0  0  0
 43 44  1  0  0  0  0
 43 45  1  0  0  0  0
 43 46  1  0  0  0  0
 47 50  2  0  0  0  0
 47 49  1  0  0  0  0
 48 51  2  0  0  0  0
 48 52  1  0  0  0  0
 48 55  1  0  0  0  0
 49 52  2  0  0  0  0
 49 58  1  0  0  0  0
 50 51  1  0  0  0  0
 50 56  1  0  0  0  0
 51 53  1  0  0  0  0
 52 54  1  0  0  0  0
 56 57  1  0  0  0  0
 56 68  1  0  0  0  0
 56 72  1  0  0  0  0
 58 59  1  0  0  0  0
 58 60  1  0  0  0  0
 58 64  1  0  0  0  0
 60 61  1  0  0  0  0
 60 62  1  0  0  0  0
 60 63  1  0  0  0  0
 64 65  1  0  0  0  0
 64 66  1  0  0  0  0
 64 67  1  0  0  0  0
 68 69  1  0  0  0  0
 68 70  1  0  0  0  0
 68 71  1  0  0  0  0
 72 73  1  0  0  0  0
 72 74  1  0  0  0  0
 72 75  1  0  0  0  0
 78 79  1  0  0  0  0
 78 80  1  0  0  0  0
 78 86  1  0  0  0  0
 83 84  1  0  0  0  0
 83 85  1  0  0  0  0
 83 86  1  0  0  0  0
 86 87  1  0  0  0  0
 86 88  1  0  0  0  0
  1 27  1  0  0  0  0
M  END
> <FrozenCore-PM6_ENERGY>
-168.544

> <RMSD_CONF_CG-CS>
1.018228

> <RMSD_CONF_GO-CS>
0.000000

> <UID>


> <DESCRIPTOR_DEFINITION_1>
desc1=( echo "1 * ( e( $hartree_to_kcalmol * ( ( $freeEnergyZ - $freeEnergyD ) - ( $freeEnergyX + 2*$G_Ethene - $freeEnergyD - 2*$G_Propene ) - $DDG_reference_HGII ) / $kT ) ) " | bc -l )

> <DESCRIPTOR_DEFINITION_2>
desc1=( echo "1 * ( e( $hartree_to_kcalmol * ( ( $freeEnergyZ - $freeEnergyD ) - ( $freeEnergyX + 2*$G_Ethene - $freeEnergyD - 2*$G_Propene ) - $DDG_reference_HGII ) / $kT ) ) " | bc -l )

> <DESCRIPTOR_DEFINITION_3>
desc1=( echo "1 * ( e( $hartree_to_kcalmol * ( ( $freeEnergyZ - $freeEnergyD ) - ( $freeEnergyX + 2*$G_Ethene - $freeEnergyD - 2*$G_Propene ) - $DDG_reference_HGII ) / $kT ) ) " | bc -l )

> <WEIGHT_DEFINITION_1>
w1=$( echo "1 / ( 1 + e( $hartree_to_kcalmol * ( ( ( $freeEnergyX + 2*$G_Ethene - $freeEnergyD - 2*$G_Propene ) ) - ( $DG_referenceProductionBarrier + $magnitude4 ) ) / $kT ) )" | bc -l )

> <WEIGHT_DEFINITION_2>
w1=$( echo "1 / ( 1 + e( $hartree_to_kcalmol * ( ( ( $freeEnergyX + 2*$G_Ethene - $freeEnergyD - 2*$G_Propene ) ) - ( $DG_referenceProductionBarrier + $magnitude4 ) ) / $kT ) )" | bc -l )

> <WEIGHT_DEFINITION_3>
w1=$( echo "1 / ( 1 + e( $hartree_to_kcalmol * ( ( ( $freeEnergyX + 2*$G_Ethene - $freeEnergyD - 2*$G_Propene ) ) - ( $DG_referenceProductionBarrier + $magnitude4 ) ) / $kT ) )" | bc -l )

> <WEIGHT_DEFINITION_4>
w1=$( echo "1 / ( 1 + e( $hartree_to_kcalmol * ( ( ( $freeEnergyX + 2*$G_Ethene - $freeEnergyD - 2*$G_Propene ) ) - ( $DG_referenceProductionBarrier + $magnitude4 ) ) / $kT ) )" | bc -l )

> <CALCULATION_OF_OVERALL_FITNESS>
fitness=$( echo "( $desc1 + $desc2 + $desc3 ) * ( $w1 * $w2 * $w3 * $w4 )" | bc -l )

> <freeEnergyA>
-2468.18471829

> <freeEnergyF>
-2468.16122673

> <freeEnergyE>
-2468.18471829

> <freeEnergyC>
-2122.92578857

> <freeEnergyL>
-990.316543328

> <freeEnergyX>
-2201.44837579

> <freeEnergyZ>
-2122.90038033

> <freeEnergyD>
-2122.94947399

> <G_Propene>
-117.738020895

> <G_Ethene>
-78.4716324751

> <G_HoveydaProd>
-502.204109499

> <G_SIMes>
-924.27249048

> <G_HG_RuCl2_SIMes>
-2402.13728523

> <DG_referenceProductionBarrier>
0.01468968

> <DG_referencePrecursorStabilityHII>
-0.0052201621

> <DG_referencePrecursorStabilityHI>
0.0117775312

> <DDG_referencePrecursorStability>
.0169976933

> <DG_referenceSynt>
0.0226072217

> <hartree_to_kcalmol>
627.49467516

> <boltzmann_constant>
0.0000000000000000000000138066

> <avogadro_number>
602214000000000000000000

> <jmol_to_kcalmol>
0.00023901

> <temp>
313.15

> <kT>
.6223089948281258706000000000

> <magnitude1>
1.43290809

> <magnitude2>
2.86581618

> <magnitude3>
4.29872427

> <magnitude4>
5.73163236

> <DFT_IDENTIFIER>
1723668632041

> <DFT_MACHINE>
158.39.114.73

> <XTB_IDENTIFIER>
NREC

> <XTB_MACHINE>
NREC

> <DESCRIPTOR_1>
.00084929126300778160

> <DESCRIPTOR_2>
9.549603138782414232

> <DESCRIPTOR_3>
0.0000000001

> <WEIGHT_1>
.07655937215177991826

> <WEIGHT_2>
.99999989908880661738

> <WEIGHT_3>
.99999999999958335894

> <WEIGHT_4>
.99999999483923292110

> <FITNESS>
.73117656425973016836

$$$$
