
  CDK     08132418113D

 74 78  0  0  0  0  0  0  0  0999 V2000
   -0.4488   -1.5486   -3.0855 H   0  0  0  0  0  0  0  0  0  0  0  0
   -1.5084   -2.1740   -3.0860 C   0  0  0  0  0  0  0  0  0  0  0  0
   -1.6104   -2.0168   -4.1803 H   0  0  0  0  0  0  0  0  0  0  0  0
   -2.1884   -1.3411   -2.0766 C   0  0  0  0  0  0  0  0  0  0  0  0
   -2.9794   -1.8105   -1.4764 H   0  0  0  0  0  0  0  0  0  0  0  0
   -2.3247   -0.2698   -2.3055 H   0  0  0  0  0  0  0  0  0  0  0  0
   -0.2666   -1.8956   -1.3555 Ru  0  0  0  0  0  0  0  0  0  0  0  0
   -1.0528   -3.4584   -2.4800 C   0  0  0  0  0  0  0  0  0  0  0  0
   -1.7847   -4.0493   -1.9065 H   0  0  0  0  0  0  0  0  0  0  0  0
   -0.3260   -4.0407   -3.0708 H   0  0  0  0  0  0  0  0  0  0  0  0
   -1.6563   -2.7650    0.4622 Cl  0  0  0  0  0  0  0  0  0  0  0  0
    1.6884   -2.0313   -2.7728 Cl  0  0  0  0  0  0  0  0  0  0  0  0
    0.8236   -1.9270    0.4159 C   0  0  0  0  0  0  0  0  0  0  0  0
    1.9546   -3.0165    2.4280 C   0  0  0  0  0  0  0  0  0  0  0  0
    1.0392   -0.6780    2.6110 C   0  0  0  0  0  0  0  0  0  0  0  0
    2.2464   -1.5889    2.8773 C   0  0  0  0  0  0  0  0  0  0  0  0
    0.7153   -0.7877    1.1131 N   0  0  0  0  0  0  0  0  0  0  0  0
    1.7112   -3.0775    0.9064 C   0  0  0  0  0  0  0  0  0  0  0  0
    1.0700   -3.4172    2.9619 H   0  0  0  0  0  0  0  0  0  0  0  0
    3.1409   -1.1911    2.3560 H   0  0  0  0  0  0  0  0  0  0  0  0
    2.8007   -3.6777    2.6949 H   0  0  0  0  0  0  0  0  0  0  0  0
    2.4697   -1.5498    3.9627 H   0  0  0  0  0  0  0  0  0  0  0  0
    1.1179   -4.4439    0.4809 C   0  0  0  0  0  0  0  0  0  0  0  0
    3.0881   -2.8987    0.1701 C   0  0  0  0  0  0  0  0  0  0  0  0
    1.3468    0.7680    3.0024 C   0  0  0  0  0  0  0  0  0  0  0  0
    1.4266    0.8170    4.1062 H   0  0  0  0  0  0  0  0  0  0  0  0
    0.5454    1.4614    2.6895 H   0  0  0  0  0  0  0  0  0  0  0  0
    2.2957    1.1345    2.5757 H   0  0  0  0  0  0  0  0  0  0  0  0
   -0.1469   -1.2003    3.4584 C   0  0  0  0  0  0  0  0  0  0  0  0
    0.2459   -1.5509    4.4338 H   0  0  0  0  0  0  0  0  0  0  0  0
   -0.6657   -2.0423    2.9637 H   0  0  0  0  0  0  0  0  0  0  0  0
   -0.8848   -0.4106    3.6705 H   0  0  0  0  0  0  0  0  0  0  0  0
    0.2045    0.3594    0.3408 C   0  0  0  0  0  0  0  0  0  0  0  0
   -0.6126    2.6104   -1.1539 C   0  0  0  0  0  0  0  0  0  0  0  0
    1.1186    0.9688   -0.5881 C   0  0  0  0  0  0  0  0  0  0  0  0
   -1.1138    0.8879    0.5168 C   0  0  0  0  0  0  0  0  0  0  0  0
   -1.4867    2.0077   -0.2506 C   0  0  0  0  0  0  0  0  0  0  0  0
    0.6714    2.0908   -1.3136 C   0  0  0  0  0  0  0  0  0  0  0  0
   -2.4987    2.4159   -0.1233 H   0  0  0  0  0  0  0  0  0  0  0  0
    1.3576    2.5683   -2.0228 H   0  0  0  0  0  0  0  0  0  0  0  0
   -0.9311    3.4886   -1.7345 H   0  0  0  0  0  0  0  0  0  0  0  0
   -2.1601    0.3802    1.5044 C   0  0  0  0  0  0  0  0  0  0  0  0
   -1.8196   -0.5937    1.8875 H   0  0  0  0  0  0  0  0  0  0  0  0
    2.5608    0.5129   -0.8271 C   0  0  0  0  0  0  0  0  0  0  0  0
    2.5687   -0.5895   -0.7912 H   0  0  0  0  0  0  0  0  0  0  0  0
    3.0903    0.9010   -2.2177 C   0  0  0  0  0  0  0  0  0  0  0  0
    3.3261    1.9840   -2.2851 H   0  0  0  0  0  0  0  0  0  0  0  0
    2.3788    0.6302   -3.0186 H   0  0  0  0  0  0  0  0  0  0  0  0
    4.0308    0.3488   -2.4112 H   0  0  0  0  0  0  0  0  0  0  0  0
    3.5456    1.0406    0.2311 C   0  0  0  0  0  0  0  0  0  0  0  0
    3.3935    0.5745    1.2204 H   0  0  0  0  0  0  0  0  0  0  0  0
    3.4625    2.1409    0.3503 H   0  0  0  0  0  0  0  0  0  0  0  0
    4.5848    0.8107   -0.0809 H   0  0  0  0  0  0  0  0  0  0  0  0
   -3.5315    0.1294    0.8560 C   0  0  0  0  0  0  0  0  0  0  0  0
   -4.2239   -0.2897    1.6137 H   0  0  0  0  0  0  0  0  0  0  0  0
   -3.9919    1.0620    0.4704 H   0  0  0  0  0  0  0  0  0  0  0  0
   -3.4560   -0.5990    0.0328 H   0  0  0  0  0  0  0  0  0  0  0  0
   -2.3402    1.3772    2.6670 C   0  0  0  0  0  0  0  0  0  0  0  0
   -3.0482    0.9684    3.4168 H   0  0  0  0  0  0  0  0  0  0  0  0
   -2.7596    2.3366    2.2997 H   0  0  0  0  0  0  0  0  0  0  0  0
   -1.3929    1.6146    3.1880 H   0  0  0  0  0  0  0  0  0  0  0  0
    2.8899   -2.7745   -0.9110 H   0  0  0  0  0  0  0  0  0  0  0  0
    3.5782   -1.9662    0.5140 H   0  0  0  0  0  0  0  0  0  0  0  0
    4.0400   -4.0870    0.3650 C   0  0  0  0  0  0  0  0  0  0  0  0
    4.3678   -4.1642    1.4257 H   0  0  0  0  0  0  0  0  0  0  0  0
    4.9604   -3.8910   -0.2241 H   0  0  0  0  0  0  0  0  0  0  0  0
    0.1674   -4.6056    1.0230 H   0  0  0  0  0  0  0  0  0  0  0  0
    0.8463   -4.3687   -0.5935 H   0  0  0  0  0  0  0  0  0  0  0  0
    2.0772   -5.6202    0.6864 C   0  0  0  0  0  0  0  0  0  0  0  0
    1.5797   -6.5513    0.3443 H   0  0  0  0  0  0  0  0  0  0  0  0
    2.2872   -5.7672    1.7698 H   0  0  0  0  0  0  0  0  0  0  0  0
    3.3935   -5.4057   -0.0665 C   0  0  0  0  0  0  0  0  0  0  0  0
    3.1857   -5.3675   -1.1591 H   0  0  0  0  0  0  0  0  0  0  0  0
    4.0890   -6.2544    0.1002 H   0  0  0  0  0  0  0  0  0  0  0  0
  1  2  1  0  0  0  0
  1  7  1  0  0  0  0
  2  3  1  0  0  0  0
  2  4  1  0  0  0  0
  4  5  1  0  0  0  0
  4  6  1  0  0  0  0
  7  8  1  0  0  0  0
  4  7  1  0  0  0  0
  2  8  1  0  0  0  0
  8  9  1  0  0  0  0
  8 10  1  0  0  0  0
  7 11  1  0  0  0  0
  7 12  1  0  0  0  0
 13 17  1  0  0  0  0
 13 18  1  0  0  0  0
 14 19  1  0  0  0  0
 14 21  1  0  0  0  0
 14 16  1  0  0  0  0
 14 18  1  0  0  0  0
 15 17  1  0  0  0  0
 15 16  1  0  0  0  0
 15 25  1  0  0  0  0
 15 29  1  0  0  0  0
 16 20  1  0  0  0  0
 16 22  1  0  0  0  0
 17 33  1  0  0  0  0
 18 23  1  0  0  0  0
 18 24  1  0  0  0  0
 23 67  1  0  0  0  0
 23 68  1  0  0  0  0
 23 69  1  0  0  0  0
 24 62  1  0  0  0  0
 24 63  1  0  0  0  0
 24 64  1  0  0  0  0
 25 26  1  0  0  0  0
 25 27  1  0  0  0  0
 25 28  1  0  0  0  0
 29 30  1  0  0  0  0
 29 31  1  0  0  0  0
 29 32  1  0  0  0  0
 33 36  2  0  0  0  0
 33 35  1  0  0  0  0
 34 37  2  0  0  0  0
 34 38  1  0  0  0  0
 34 41  1  0  0  0  0
 35 38  2  0  0  0  0
 35 44  1  0  0  0  0
 36 37  1  0  0  0  0
 36 42  1  0  0  0  0
 37 39  1  0  0  0  0
 38 40  1  0  0  0  0
 42 43  1  0  0  0  0
 42 54  1  0  0  0  0
 42 58  1  0  0  0  0
 44 45  1  0  0  0  0
 44 46  1  0  0  0  0
 44 50  1  0  0  0  0
 46 47  1  0  0  0  0
 46 48  1  0  0  0  0
 46 49  1  0  0  0  0
 50 51  1  0  0  0  0
 50 52  1  0  0  0  0
 50 53  1  0  0  0  0
 54 55  1  0  0  0  0
 54 56  1  0  0  0  0
 54 57  1  0  0  0  0
 58 59  1  0  0  0  0
 58 60  1  0  0  0  0
 58 61  1  0  0  0  0
 64 65  1  0  0  0  0
 64 66  1  0  0  0  0
 64 72  1  0  0  0  0
 69 70  1  0  0  0  0
 69 71  1  0  0  0  0
 69 72  1  0  0  0  0
 72 73  1  0  0  0  0
 72 74  1  0  0  0  0
  7 13  1  0  0  0  0
M  END
>  <DFT-ENERGY>
-2122.90037997

$$$$
