
  CDK     02062402363D

 46 50  0  0  0  0  0  0  0  0999 V2000
    2.0117    0.8720   -3.6638 H   0  0  0  0  0  0  0  0  0  0  0  0
    2.5173   -0.2220   -3.4153 C   0  0  0  0  0  0  0  0  0  0  0  0
    3.2818   -0.2222   -4.2250 H   0  0  0  0  0  0  0  0  0  0  0  0
    1.3292   -1.0986   -3.3936 C   0  0  0  0  0  0  0  0  0  0  0  0
    1.4044   -2.0070   -2.7740 H   0  0  0  0  0  0  0  0  0  0  0  0
    0.7143   -1.2007   -4.3006 H   0  0  0  0  0  0  0  0  0  0  0  0
    0.8731    0.7298   -2.3112 Ru  0  0  0  0  0  0  0  0  0  0  0  0
    2.8142   -0.1406   -1.9641 C   0  0  0  0  0  0  0  0  0  0  0  0
    2.7940   -1.0888   -1.4031 H   0  0  0  0  0  0  0  0  0  0  0  0
    3.5495    0.5908   -1.5972 H   0  0  0  0  0  0  0  0  0  0  0  0
    1.8663    2.6385   -1.4444 Cl  0  0  0  0  0  0  0  0  0  0  0  0
   -1.1471    0.4760   -3.4113 Cl  0  0  0  0  0  0  0  0  0  0  0  0
   -0.1619    0.3493   -0.3198 P   0  0  0  0  0  0  0  0  0  0  0  0
    1.7161   -2.0897    2.4735 C   0  0  0  0  0  0  0  0  0  0  0  0
   -1.5620   -0.8565   -0.2851 C   0  0  0  0  0  0  0  0  0  0  0  0
    2.1538    0.4102    1.2729 C   0  0  0  0  0  0  0  0  0  0  0  0
    0.7898   -1.5906    1.5432 C   0  0  0  0  0  0  0  0  0  0  0  0
   -0.8818    1.8381    0.4956 C   0  0  0  0  0  0  0  0  0  0  0  0
    1.0048   -0.3378    0.9390 C   0  0  0  0  0  0  0  0  0  0  0  0
   -1.5118   -1.9832   -1.1284 C   0  0  0  0  0  0  0  0  0  0  0  0
    3.0663   -0.0888    2.2109 C   0  0  0  0  0  0  0  0  0  0  0  0
   -0.7478    2.0926    1.8725 C   0  0  0  0  0  0  0  0  0  0  0  0
   -2.6418   -0.7007    0.6038 C   0  0  0  0  0  0  0  0  0  0  0  0
   -2.2245    3.8516    0.2542 C   0  0  0  0  0  0  0  0  0  0  0  0
   -1.3504    3.2288    2.4350 C   0  0  0  0  0  0  0  0  0  0  0  0
   -2.5241   -2.9503   -1.0726 C   0  0  0  0  0  0  0  0  0  0  0  0
   -3.5997   -2.7938   -0.1839 C   0  0  0  0  0  0  0  0  0  0  0  0
   -3.6577   -1.6676    0.6504 C   0  0  0  0  0  0  0  0  0  0  0  0
   -1.6201    2.7233   -0.3148 C   0  0  0  0  0  0  0  0  0  0  0  0
   -2.0890    4.1074    1.6286 C   0  0  0  0  0  0  0  0  0  0  0  0
    2.8522   -1.3412    2.8113 C   0  0  0  0  0  0  0  0  0  0  0  0
    1.5420   -3.0709    2.9390 H   0  0  0  0  0  0  0  0  0  0  0  0
    2.3264    1.3818    0.7860 H   0  0  0  0  0  0  0  0  0  0  0  0
   -0.1040   -2.1772    1.2902 H   0  0  0  0  0  0  0  0  0  0  0  0
   -0.6786   -2.0888   -1.8354 H   0  0  0  0  0  0  0  0  0  0  0  0
    3.9562    0.5033    2.4703 H   0  0  0  0  0  0  0  0  0  0  0  0
   -0.1682    1.4049    2.5045 H   0  0  0  0  0  0  0  0  0  0  0  0
   -2.6913    0.1813    1.2576 H   0  0  0  0  0  0  0  0  0  0  0  0
   -2.7989    4.5406   -0.3819 H   0  0  0  0  0  0  0  0  0  0  0  0
   -1.2394    3.4277    3.5110 H   0  0  0  0  0  0  0  0  0  0  0  0
   -2.4784   -3.8259   -1.7364 H   0  0  0  0  0  0  0  0  0  0  0  0
   -4.3984   -3.5489   -0.1471 H   0  0  0  0  0  0  0  0  0  0  0  0
   -4.5016   -1.5362    1.3432 H   0  0  0  0  0  0  0  0  0  0  0  0
   -1.7174    2.5188   -1.3916 H   0  0  0  0  0  0  0  0  0  0  0  0
   -2.5577    4.9983    2.0715 H   0  0  0  0  0  0  0  0  0  0  0  0
    3.5747   -1.7337    3.5416 H   0  0  0  0  0  0  0  0  0  0  0  0
  1  2  1  0  0  0  0
  1  7  1  0  0  0  0
  2  3  1  0  0  0  0
  2  4  1  0  0  0  0
  4  5  1  0  0  0  0
  6  4  1  0  0  0  0
  7  8  1  0  0  0  0
  7  4  1  0  0  0  0
  8  2  1  0  0  0  0
  8  9  1  0  0  0  0
 10  8  1  0  0  0  0
  7 11  1  0  0  0  0
  7 12  1  0  0  0  0
 14 17  1  0  0  0  0
 13 15  1  0  0  0  0
 16 19  1  0  0  0  0
 17 19  2  0  0  0  0
 13 18  1  0  0  0  0
 13 19  1  0  0  0  0
 15 20  1  0  0  0  0
 16 21  2  0  0  0  0
 18 22  2  0  0  0  0
 15 23  2  0  0  0  0
 24 29  2  0  0  0  0
 22 25  1  0  0  0  0
 20 26  2  0  0  0  0
 26 27  1  0  0  0  0
 23 28  1  0  0  0  0
 18 29  1  0  0  0  0
 24 30  1  0  0  0  0
 14 31  2  0  0  0  0
 14 32  1  0  0  0  0
 16 33  1  0  0  0  0
 17 34  1  0  0  0  0
 20 35  1  0  0  0  0
 21 36  1  0  0  0  0
 22 37  1  0  0  0  0
 23 38  1  0  0  0  0
 24 39  1  0  0  0  0
 25 40  1  0  0  0  0
 26 41  1  0  0  0  0
 27 42  1  0  0  0  0
 28 43  1  0  0  0  0
 29 44  1  0  0  0  0
 30 45  1  0  0  0  0
 31 46  1  0  0  0  0
 21 31  1  0  0  0  0
 25 30  2  0  0  0  0
 27 28  2  0  0  0  0
  7 13  1  0  0  0  0
M  END
>  <DFT-ENERGY>
-2167.89988654

$$$$
