
  CDK     02052418183D

 52 55  0  0  0  0  0  0  0  0999 V2000
    1.1786    2.2904   -2.9793 C   0  0  0  0  0  0  0  0  0  0  0  0
    0.2422    2.8738   -2.9297 H   0  0  0  0  0  0  0  0  0  0  0  0
    1.8461    2.7210   -3.7592 H   0  0  0  0  0  0  0  0  0  0  0  0
    1.7114    2.4002   -2.0128 H   0  0  0  0  0  0  0  0  0  0  0  0
    0.9275    0.8378   -3.3151 C   0  0  0  0  0  0  0  0  0  0  0  0
    1.8281    0.2029   -3.4107 H   0  0  0  0  0  0  0  0  0  0  0  0
   -0.2131    0.3826   -4.0329 C   0  0  0  0  0  0  0  0  0  0  0  0
   -1.0355    1.1057   -4.1735 H   0  0  0  0  0  0  0  0  0  0  0  0
   -0.0670   -0.7333   -5.0424 C   0  0  0  0  0  0  0  0  0  0  0  0
   -1.0350   -1.1812   -5.3359 H   0  0  0  0  0  0  0  0  0  0  0  0
    0.3965   -0.3098   -5.9597 H   0  0  0  0  0  0  0  0  0  0  0  0
    0.6029   -1.5257   -4.6547 H   0  0  0  0  0  0  0  0  0  0  0  0
   -1.4627   -0.9809   -2.6310 C   0  0  0  0  0  0  0  0  0  0  0  0
   -1.2313   -2.0036   -3.0006 H   0  0  0  0  0  0  0  0  0  0  0  0
   -2.4807   -0.5767   -2.8314 H   0  0  0  0  0  0  0  0  0  0  0  0
   -0.2333    0.0026   -1.6984 Ru  0  0  0  0  0  0  0  0  0  0  0  0
    1.3296   -1.8263   -1.8382 Cl  0  0  0  0  0  0  0  0  0  0  0  0
   -1.7905    1.8329   -1.5730 Cl  0  0  0  0  0  0  0  0  0  0  0  0
   -0.2123   -0.1917    0.6106 P   0  0  0  0  0  0  0  0  0  0  0  0
   -2.4886    1.0140    3.8347 C   0  0  0  0  0  0  0  0  0  0  0  0
    1.0895    1.0957    0.7234 C   0  0  0  0  0  0  0  0  0  0  0  0
   -2.9205    0.3283    1.1410 C   0  0  0  0  0  0  0  0  0  0  0  0
   -1.4014    0.6745    3.0190 C   0  0  0  0  0  0  0  0  0  0  0  0
    0.4329   -1.6877    1.4542 C   0  0  0  0  0  0  0  0  0  0  0  0
   -1.6168    0.3346    1.6684 C   0  0  0  0  0  0  0  0  0  0  0  0
    2.4160    0.7481    0.3823 C   0  0  0  0  0  0  0  0  0  0  0  0
   -4.0051    0.6579    1.9674 C   0  0  0  0  0  0  0  0  0  0  0  0
   -0.0169   -2.9456    1.0122 C   0  0  0  0  0  0  0  0  0  0  0  0
    0.7424    2.4438    0.9516 C   0  0  0  0  0  0  0  0  0  0  0  0
    1.7111   -2.7628    3.2209 C   0  0  0  0  0  0  0  0  0  0  0  0
    0.3871   -4.1055    1.6858 C   0  0  0  0  0  0  0  0  0  0  0  0
    3.3942    1.7497    0.3053 C   0  0  0  0  0  0  0  0  0  0  0  0
    3.0534    3.0897    0.5500 C   0  0  0  0  0  0  0  0  0  0  0  0
    1.7290    3.4343    0.8703 C   0  0  0  0  0  0  0  0  0  0  0  0
    1.3027   -1.5968    2.5569 C   0  0  0  0  0  0  0  0  0  0  0  0
    1.2500   -4.0160    2.7896 C   0  0  0  0  0  0  0  0  0  0  0  0
   -3.7915    1.0023    3.3100 C   0  0  0  0  0  0  0  0  0  0  0  0
   -2.3179    1.2853    4.8866 H   0  0  0  0  0  0  0  0  0  0  0  0
   -3.0725    0.0962    0.0787 H   0  0  0  0  0  0  0  0  0  0  0  0
   -0.3834    0.6756    3.4340 H   0  0  0  0  0  0  0  0  0  0  0  0
    2.6620   -0.2987    0.1510 H   0  0  0  0  0  0  0  0  0  0  0  0
   -5.0233    0.6556    1.5526 H   0  0  0  0  0  0  0  0  0  0  0  0
   -0.6632   -3.0085    0.1258 H   0  0  0  0  0  0  0  0  0  0  0  0
   -0.3015    2.7096    1.1665 H   0  0  0  0  0  0  0  0  0  0  0  0
    2.3957   -2.6905    4.0785 H   0  0  0  0  0  0  0  0  0  0  0  0
    0.0385   -5.0877    1.3358 H   0  0  0  0  0  0  0  0  0  0  0  0
    4.4267    1.4804    0.0399 H   0  0  0  0  0  0  0  0  0  0  0  0
    3.8223    3.8731    0.4819 H   0  0  0  0  0  0  0  0  0  0  0  0
    1.4594    4.4855    1.0467 H   0  0  0  0  0  0  0  0  0  0  0  0
    1.6763   -0.6165    2.8869 H   0  0  0  0  0  0  0  0  0  0  0  0
    1.5727   -4.9289    3.3108 H   0  0  0  0  0  0  0  0  0  0  0  0
   -4.6439    1.2659    3.9531 H   0  0  0  0  0  0  0  0  0  0  0  0
  1  2  1  0  0  0  0
  1  5  1  0  0  0  0
  3  1  1  0  0  0  0
  4  1  1  0  0  0  0
  5  6  1  0  0  0  0
  5 16  1  0  0  0  0
  5  7  1  0  0  0  0
  7  9  1  0  0  0  0
  7  8  1  0  0  0  0
  9 10  1  0  0  0  0
 11  9  1  0  0  0  0
 12  9  1  0  0  0  0
 13 14  1  0  0  0  0
 13 15  1  0  0  0  0
 13  7  1  0  0  0  0
 16 13  1  0  0  0  0
 16 17  1  0  0  0  0
 16 18  1  0  0  0  0
 20 23  1  0  0  0  0
 19 21  1  0  0  0  0
 22 25  1  0  0  0  0
 23 25  2  0  0  0  0
 19 24  1  0  0  0  0
 19 25  1  0  0  0  0
 21 26  1  0  0  0  0
 22 27  2  0  0  0  0
 24 28  2  0  0  0  0
 21 29  2  0  0  0  0
 30 35  2  0  0  0  0
 28 31  1  0  0  0  0
 26 32  2  0  0  0  0
 32 33  1  0  0  0  0
 29 34  1  0  0  0  0
 24 35  1  0  0  0  0
 30 36  1  0  0  0  0
 20 37  2  0  0  0  0
 20 38  1  0  0  0  0
 22 39  1  0  0  0  0
 23 40  1  0  0  0  0
 26 41  1  0  0  0  0
 27 42  1  0  0  0  0
 28 43  1  0  0  0  0
 29 44  1  0  0  0  0
 30 45  1  0  0  0  0
 31 46  1  0  0  0  0
 32 47  1  0  0  0  0
 33 48  1  0  0  0  0
 34 49  1  0  0  0  0
 35 50  1  0  0  0  0
 36 51  1  0  0  0  0
 37 52  1  0  0  0  0
 27 37  1  0  0  0  0
 31 36  2  0  0  0  0
 33 34  2  0  0  0  0
 16 19  1  0  0  0  0
M  END
>  <DFT-ENERGY>
-2246.43500674

$$$$
