
  CDK     08142402593D

 64 67  0  0  0  0  0  0  0  0999 V2000
   -0.3511    2.7684    1.8340 H   0  0  0  0  0  0  0  0  0  0  0  0
   -1.3841    2.6900    2.4980 C   0  0  0  0  0  0  0  0  0  0  0  0
   -1.6213    3.7500    2.2694 H   0  0  0  0  0  0  0  0  0  0  0  0
   -1.9664    1.5520    1.7523 C   0  0  0  0  0  0  0  0  0  0  0  0
   -2.6760    0.8883    2.2651 H   0  0  0  0  0  0  0  0  0  0  0  0
   -2.1546    1.7149    0.6765 H   0  0  0  0  0  0  0  0  0  0  0  0
    0.0394    1.0975    2.2834 Ru  0  0  0  0  0  0  0  0  0  0  0  0
   -0.7872    2.2554    3.7935 C   0  0  0  0  0  0  0  0  0  0  0  0
   -1.4012    1.6571    4.4846 H   0  0  0  0  0  0  0  0  0  0  0  0
   -0.0978    2.9757    4.2667 H   0  0  0  0  0  0  0  0  0  0  0  0
   -1.1467   -0.7407    3.3768 Cl  0  0  0  0  0  0  0  0  0  0  0  0
    1.8296    2.6417    1.8954 Cl  0  0  0  0  0  0  0  0  0  0  0  0
    1.3204   -0.4952    2.3941 C   0  0  0  0  0  0  0  0  0  0  0  0
    2.3342   -0.8199    3.5056 C   0  0  0  0  0  0  0  0  0  0  0  0
    1.3864   -1.4287    1.4471 N   0  0  0  0  0  0  0  0  0  0  0  0
    2.1398   -2.6877    1.8989 C   0  0  0  0  0  0  0  0  0  0  0  0
    3.0899   -2.0479    2.9210 C   0  0  0  0  0  0  0  0  0  0  0  0
    4.0054   -1.7012    2.4000 H   0  0  0  0  0  0  0  0  0  0  0  0
    3.3939   -2.7650    3.7066 H   0  0  0  0  0  0  0  0  0  0  0  0
    3.3168    0.3539    3.6943 C   0  0  0  0  0  0  0  0  0  0  0  0
    3.7852    0.6639    2.7413 H   0  0  0  0  0  0  0  0  0  0  0  0
    4.1163    0.0255    4.3903 H   0  0  0  0  0  0  0  0  0  0  0  0
    2.8115    1.2401    4.1192 H   0  0  0  0  0  0  0  0  0  0  0  0
    1.6837   -1.0964    4.8748 C   0  0  0  0  0  0  0  0  0  0  0  0
    1.0129   -1.9723    4.8644 H   0  0  0  0  0  0  0  0  0  0  0  0
    1.0819   -0.2247    5.1927 H   0  0  0  0  0  0  0  0  0  0  0  0
    2.4873   -1.2683    5.6202 H   0  0  0  0  0  0  0  0  0  0  0  0
    0.9055   -1.2676    0.0831 C   0  0  0  0  0  0  0  0  0  0  0  0
    0.2612   -1.2224   -2.6530 C   0  0  0  0  0  0  0  0  0  0  0  0
    1.7256   -0.5192   -0.8169 C   0  0  0  0  0  0  0  0  0  0  0  0
   -0.2662   -1.9318   -0.3711 C   0  0  0  0  0  0  0  0  0  0  0  0
   -0.5639   -1.8890   -1.7462 C   0  0  0  0  0  0  0  0  0  0  0  0
    1.3813   -0.5350   -2.1821 C   0  0  0  0  0  0  0  0  0  0  0  0
   -1.4694   -2.3972   -2.1068 H   0  0  0  0  0  0  0  0  0  0  0  0
    2.0108    0.0201   -2.8908 H   0  0  0  0  0  0  0  0  0  0  0  0
    0.0207   -1.2204   -3.7261 H   0  0  0  0  0  0  0  0  0  0  0  0
    2.9290    0.3302   -0.4101 C   0  0  0  0  0  0  0  0  0  0  0  0
    2.8828    0.4995    0.6818 H   0  0  0  0  0  0  0  0  0  0  0  0
    2.8647    1.7197   -1.0732 C   0  0  0  0  0  0  0  0  0  0  0  0
    3.0911    1.6656   -2.1583 H   0  0  0  0  0  0  0  0  0  0  0  0
    3.6129    2.3892   -0.6063 H   0  0  0  0  0  0  0  0  0  0  0  0
    1.8721    2.1869   -0.9375 H   0  0  0  0  0  0  0  0  0  0  0  0
    4.2804   -0.3227   -0.7524 C   0  0  0  0  0  0  0  0  0  0  0  0
    5.1036    0.3955   -0.5621 H   0  0  0  0  0  0  0  0  0  0  0  0
    4.3258   -0.6134   -1.8226 H   0  0  0  0  0  0  0  0  0  0  0  0
    4.4885   -1.2257   -0.1478 H   0  0  0  0  0  0  0  0  0  0  0  0
   -1.2480   -2.6555    0.5372 C   0  0  0  0  0  0  0  0  0  0  0  0
   -0.8872   -2.5616    1.5761 H   0  0  0  0  0  0  0  0  0  0  0  0
   -2.6255   -1.9712    0.4932 C   0  0  0  0  0  0  0  0  0  0  0  0
   -2.5372   -0.9010    0.7531 H   0  0  0  0  0  0  0  0  0  0  0  0
   -3.3086   -2.4430    1.2278 H   0  0  0  0  0  0  0  0  0  0  0  0
   -3.0908   -2.0553   -0.5109 H   0  0  0  0  0  0  0  0  0  0  0  0
   -1.3806   -4.1428    0.1659 C   0  0  0  0  0  0  0  0  0  0  0  0
   -2.0111   -4.6719    0.9091 H   0  0  0  0  0  0  0  0  0  0  0  0
   -0.3988   -4.6558    0.1199 H   0  0  0  0  0  0  0  0  0  0  0  0
   -1.8599   -4.2702   -0.8267 H   0  0  0  0  0  0  0  0  0  0  0  0
    2.8302   -3.3958    0.7392 C   0  0  0  0  0  0  0  0  0  0  0  0
    3.5628   -2.7507    0.2244 H   0  0  0  0  0  0  0  0  0  0  0  0
    2.0942   -3.7464   -0.0106 H   0  0  0  0  0  0  0  0  0  0  0  0
    3.3651   -4.2831    1.1317 H   0  0  0  0  0  0  0  0  0  0  0  0
    1.1693   -3.6633    2.5900 C   0  0  0  0  0  0  0  0  0  0  0  0
    1.7620   -4.3943    3.1750 H   0  0  0  0  0  0  0  0  0  0  0  0
    0.5687   -4.2307    1.8589 H   0  0  0  0  0  0  0  0  0  0  0  0
    0.4785   -3.1366    3.2740 H   0  0  0  0  0  0  0  0  0  0  0  0
  1  2  1  0  0  0  0
  1  7  1  0  0  0  0
  2  3  1  0  0  0  0
  2  4  1  0  0  0  0
  4  5  1  0  0  0  0
  4  6  1  0  0  0  0
  7  8  1  0  0  0  0
  4  7  1  0  0  0  0
  2  8  1  0  0  0  0
  8  9  1  0  0  0  0
  8 10  1  0  0  0  0
  7 11  1  0  0  0  0
  7 12  1  0  0  0  0
 13 14  1  0  0  0  0
 13 15  1  0  0  0  0
 14 17  1  0  0  0  0
 14 20  1  0  0  0  0
 14 24  1  0  0  0  0
 15 16  1  0  0  0  0
 16 17  1  0  0  0  0
 17 18  1  0  0  0  0
 17 19  1  0  0  0  0
 20 21  1  0  0  0  0
 20 22  1  0  0  0  0
 20 23  1  0  0  0  0
 24 25  1  0  0  0  0
 24 26  1  0  0  0  0
 24 27  1  0  0  0  0
 28 31  2  0  0  0  0
 28 30  1  0  0  0  0
 29 32  2  0  0  0  0
 29 33  1  0  0  0  0
 29 36  1  0  0  0  0
 30 33  2  0  0  0  0
 31 32  1  0  0  0  0
 32 34  1  0  0  0  0
 33 35  1  0  0  0  0
 15 28  1  0  0  0  0
 37 38  1  0  0  0  0
 37 39  1  0  0  0  0
 37 43  1  0  0  0  0
 39 40  1  0  0  0  0
 39 41  1  0  0  0  0
 39 42  1  0  0  0  0
 43 44  1  0  0  0  0
 43 45  1  0  0  0  0
 43 46  1  0  0  0  0
 30 37  1  0  0  0  0
 47 48  1  0  0  0  0
 47 49  1  0  0  0  0
 47 53  1  0  0  0  0
 49 50  1  0  0  0  0
 49 51  1  0  0  0  0
 49 52  1  0  0  0  0
 53 54  1  0  0  0  0
 53 55  1  0  0  0  0
 53 56  1  0  0  0  0
 31 47  1  0  0  0  0
 57 58  1  0  0  0  0
 57 59  1  0  0  0  0
 57 60  1  0  0  0  0
 16 57  1  0  0  0  0
 61 62  1  0  0  0  0
 61 63  1  0  0  0  0
 61 64  1  0  0  0  0
 16 61  1  0  0  0  0
  7 13  1  0  0  0  0
M  END
>  <DFT-ENERGY>
-1967.04663251

$$$$
