DIPP5CAAC-5_A1
  CDK     08132410163D

 78 81  0  0  0  0  0  0  0  0999 V2000
    0.4331    0.7602   -1.4378 Ru  0  0  0  0  0  0  0  0  0  0  0  0
    2.2109    0.7602   -2.8270 O   0  0  0  0  0  0  0  0  0  0  0  0
    1.6433   -0.1731   -0.4337 C   0  0  0  0  0  0  0  0  0  0  0  0
    1.4105   -0.4660    0.5890 H   0  0  0  0  0  0  0  0  0  0  0  0
    2.4464    1.5354   -4.0528 C   0  0  0  0  0  0  0  0  0  0  0  0
    2.8610    0.8385   -4.8117 H   0  0  0  0  0  0  0  0  0  0  0  0
    1.0241    1.9714   -4.3782 C   0  0  0  0  0  0  0  0  0  0  0  0
    0.9604    2.4662   -5.3509 H   0  0  0  0  0  0  0  0  0  0  0  0
    0.6371    2.6708   -3.6112 H   0  0  0  0  0  0  0  0  0  0  0  0
    0.3433    1.0959   -4.3884 H   0  0  0  0  0  0  0  0  0  0  0  0
    3.3788    2.6864   -3.7201 C   0  0  0  0  0  0  0  0  0  0  0  0
    3.0550    3.1751   -2.7799 H   0  0  0  0  0  0  0  0  0  0  0  0
    3.3757    3.4538   -4.5006 H   0  0  0  0  0  0  0  0  0  0  0  0
    4.4126    2.3612   -3.5638 H   0  0  0  0  0  0  0  0  0  0  0  0
    3.2031   -0.0382   -2.3220 C   0  0  0  0  0  0  0  0  0  0  0  0
    4.3722   -0.3869   -2.9750 C   0  0  0  0  0  0  0  0  0  0  0  0
    4.5913   -0.0358   -3.9808 H   0  0  0  0  0  0  0  0  0  0  0  0
    5.2734   -1.2180   -2.3175 C   0  0  0  0  0  0  0  0  0  0  0  0
    6.1961   -1.5052   -2.8263 H   0  0  0  0  0  0  0  0  0  0  0  0
    5.0234   -1.6896   -1.0322 C   0  0  0  0  0  0  0  0  0  0  0  0
    5.7485   -2.3338   -0.5379 H   0  0  0  0  0  0  0  0  0  0  0  0
    3.8537   -1.3293   -0.3906 C   0  0  0  0  0  0  0  0  0  0  0  0
    3.6605   -1.6839    0.6207 H   0  0  0  0  0  0  0  0  0  0  0  0
    2.9182   -0.5139   -1.0300 C   0  0  0  0  0  0  0  0  0  0  0  0
    1.0292    2.9392   -0.8808 Cl  0  0  0  0  0  0  0  0  0  0  0  0
   -0.3929   -0.9518   -2.8018 Cl  0  0  0  0  0  0  0  0  0  0  0  0
   -1.1570    0.6649   -0.3291 C   0  0  0  0  0  0  0  0  0  0  0  0
   -2.3854    1.4518   -0.8687 C   0  0  0  0  0  0  0  0  0  0  0  0
   -1.5529    0.0040    0.7915 N   0  0  0  0  0  0  0  0  0  0  0  0
   -3.0400    0.1438    1.1475 C   0  0  0  0  0  0  0  0  0  0  0  0
   -3.4930    1.2908    0.2125 C   0  0  0  0  0  0  0  0  0  0  0  0
   -3.6271    2.2308    0.7755 H   0  0  0  0  0  0  0  0  0  0  0  0
   -4.4738    1.0813   -0.2427 H   0  0  0  0  0  0  0  0  0  0  0  0
   -2.0350    2.9297   -1.0588 C   0  0  0  0  0  0  0  0  0  0  0  0
   -1.5235    3.3485   -0.1797 H   0  0  0  0  0  0  0  0  0  0  0  0
   -2.9280    3.5346   -1.2472 H   0  0  0  0  0  0  0  0  0  0  0  0
   -1.3619    3.0821   -1.9198 H   0  0  0  0  0  0  0  0  0  0  0  0
   -2.8322    0.8458   -2.2045 C   0  0  0  0  0  0  0  0  0  0  0  0
   -3.7843    1.2682   -2.5406 H   0  0  0  0  0  0  0  0  0  0  0  0
   -2.9487   -0.2452   -2.1440 H   0  0  0  0  0  0  0  0  0  0  0  0
   -2.0960    1.0404   -3.0034 H   0  0  0  0  0  0  0  0  0  0  0  0
   -0.7198   -0.8086    1.6656 C   0  0  0  0  0  0  0  0  0  0  0  0
    0.7016   -2.3995    3.4821 C   0  0  0  0  0  0  0  0  0  0  0  0
   -0.1089   -0.2087    2.7971 C   0  0  0  0  0  0  0  0  0  0  0  0
   -0.5530   -2.1896    1.4055 C   0  0  0  0  0  0  0  0  0  0  0  0
    0.1454   -2.9711    2.3403 C   0  0  0  0  0  0  0  0  0  0  0  0
    0.5931   -1.0248    3.6945 C   0  0  0  0  0  0  0  0  0  0  0  0
    0.2618   -4.0400    2.1595 H   0  0  0  0  0  0  0  0  0  0  0  0
    1.0683   -0.5779    4.5680 H   0  0  0  0  0  0  0  0  0  0  0  0
    1.2346   -3.0211    4.2004 H   0  0  0  0  0  0  0  0  0  0  0  0
   -0.1259    1.2934    3.0335 C   0  0  0  0  0  0  0  0  0  0  0  0
   -0.9633    1.7577    2.4454 H   0  0  0  0  0  0  0  0  0  0  0  0
    1.1894    1.8908    2.5223 C   0  0  0  0  0  0  0  0  0  0  0  0
    2.0636    1.4750    3.0313 H   0  0  0  0  0  0  0  0  0  0  0  0
    1.2130    2.9788    2.6525 H   0  0  0  0  0  0  0  0  0  0  0  0
    1.3140    1.7068    1.4393 H   0  0  0  0  0  0  0  0  0  0  0  0
   -0.3592    1.6432    4.5098 C   0  0  0  0  0  0  0  0  0  0  0  0
   -0.5228    2.7200    4.6319 H   0  0  0  0  0  0  0  0  0  0  0  0
    0.5023    1.3804    5.1347 H   0  0  0  0  0  0  0  0  0  0  0  0
   -1.2319    1.1219    4.9163 H   0  0  0  0  0  0  0  0  0  0  0  0
   -1.0421   -2.8590    0.1313 C   0  0  0  0  0  0  0  0  0  0  0  0
   -1.5802   -2.1089   -0.5108 H   0  0  0  0  0  0  0  0  0  0  0  0
    0.1551   -3.3569   -0.6884 C   0  0  0  0  0  0  0  0  0  0  0  0
    0.8477   -2.5285   -0.9135 H   0  0  0  0  0  0  0  0  0  0  0  0
   -0.1757   -3.7378   -1.6638 H   0  0  0  0  0  0  0  0  0  0  0  0
    0.7182   -4.1462   -0.1865 H   0  0  0  0  0  0  0  0  0  0  0  0
   -2.0095   -4.0057    0.4546 C   0  0  0  0  0  0  0  0  0  0  0  0
   -2.4481   -4.4121   -0.4641 H   0  0  0  0  0  0  0  0  0  0  0  0
   -2.8306   -3.6646    1.0985 H   0  0  0  0  0  0  0  0  0  0  0  0
   -1.5087   -4.8341    0.9666 H   0  0  0  0  0  0  0  0  0  0  0  0
   -3.2385    0.5016    2.6209 C   0  0  0  0  0  0  0  0  0  0  0  0
   -2.7176    1.4316    2.8909 H   0  0  0  0  0  0  0  0  0  0  0  0
   -2.8612   -0.2844    3.2882 H   0  0  0  0  0  0  0  0  0  0  0  0
   -4.3008    0.6404    2.8505 H   0  0  0  0  0  0  0  0  0  0  0  0
   -3.7784   -1.1591    0.8249 C   0  0  0  0  0  0  0  0  0  0  0  0
   -4.8490   -1.0704    1.0375 H   0  0  0  0  0  0  0  0  0  0  0  0
   -3.3974   -2.0058    1.4169 H   0  0  0  0  0  0  0  0  0  0  0  0
   -3.6743   -1.4357   -0.2330 H   0  0  0  0  0  0  0  0  0  0  0  0
  2  1  1  0  0  0  0
  3  1  2  0  0  0  0
  4  3  1  0  0  0  0
  5  2  1  0  0  0  0
  6  5  1  0  0  0  0
  7  5  1  0  0  0  0
  8  7  1  0  0  0  0
  9  7  1  0  0  0  0
 10  7  1  0  0  0  0
 11  5  1  0  0  0  0
 12 11  1  0  0  0  0
 13 11  1  0  0  0  0
 14 11  1  0  0  0  0
 15  2  1  0  0  0  0
 15 24  1  0  0  0  0
 16 15  2  0  0  0  0
 17 16  1  0  0  0  0
 18 16  1  0  0  0  0
 19 18  1  0  0  0  0
 20 18  2  0  0  0  0
 21 20  1  0  0  0  0
 22 20  1  0  0  0  0
 22 24  2  0  0  0  0
 23 22  1  0  0  0  0
 24  3  1  0  0  0  0
  1 25  1  0  0  0  0
  1 26  1  0  0  0  0
 27 28  1  0  0  0  0
 27 29  1  0  0  0  0
 28 31  1  0  0  0  0
 28 34  1  0  0  0  0
 28 38  1  0  0  0  0
 29 30  1  0  0  0  0
 30 31  1  0  0  0  0
 31 32  1  0  0  0  0
 31 33  1  0  0  0  0
 34 35  1  0  0  0  0
 34 36  1  0  0  0  0
 34 37  1  0  0  0  0
 38 39  1  0  0  0  0
 38 40  1  0  0  0  0
 38 41  1  0  0  0  0
  1 27  1  0  0  0  0
 42 45  2  0  0  0  0
 42 44  1  0  0  0  0
 43 46  2  0  0  0  0
 43 47  1  0  0  0  0
 43 50  1  0  0  0  0
 44 47  2  0  0  0  0
 45 46  1  0  0  0  0
 46 48  1  0  0  0  0
 47 49  1  0  0  0  0
 29 42  1  0  0  0  0
 51 52  1  0  0  0  0
 51 53  1  0  0  0  0
 51 57  1  0  0  0  0
 53 54  1  0  0  0  0
 53 55  1  0  0  0  0
 53 56  1  0  0  0  0
 57 58  1  0  0  0  0
 57 59  1  0  0  0  0
 57 60  1  0  0  0  0
 44 51  1  0  0  0  0
 61 62  1  0  0  0  0
 61 63  1  0  0  0  0
 61 67  1  0  0  0  0
 63 64  1  0  0  0  0
 63 65  1  0  0  0  0
 63 66  1  0  0  0  0
 67 68  1  0  0  0  0
 67 69  1  0  0  0  0
 67 70  1  0  0  0  0
 45 61  1  0  0  0  0
 71 72  1  0  0  0  0
 71 73  1  0  0  0  0
 71 74  1  0  0  0  0
 30 71  1  0  0  0  0
 75 76  1  0  0  0  0
 75 77  1  0  0  0  0
 75 78  1  0  0  0  0
 30 75  1  0  0  0  0
M  END
> <FrozenCore-PM6_ENERGY>
-182.816

> <RMSD_CONF_CG-CS>
0.431765

> <RMSD_CONF_GO-CS>
0.000000

> <UID>


> <DESCRIPTOR_DEFINITION_1>
desc1=( echo "1 * ( e( $hartree_to_kcalmol * ( ( $freeEnergyZ - $freeEnergyD ) - ( $freeEnergyX + 2*$G_Ethene - $freeEnergyD - 2*$G_Propene ) - $DDG_reference_HGII ) / $kT ) ) " | bc -l )

> <DESCRIPTOR_DEFINITION_2>
desc1=( echo "1 * ( e( $hartree_to_kcalmol * ( ( $freeEnergyZ - $freeEnergyD ) - ( $freeEnergyX + 2*$G_Ethene - $freeEnergyD - 2*$G_Propene ) - $DDG_reference_HGII ) / $kT ) ) " | bc -l )

> <DESCRIPTOR_DEFINITION_3>
desc1=( echo "1 * ( e( $hartree_to_kcalmol * ( ( $freeEnergyZ - $freeEnergyD ) - ( $freeEnergyX + 2*$G_Ethene - $freeEnergyD - 2*$G_Propene ) - $DDG_reference_HGII ) / $kT ) ) " | bc -l )

> <WEIGHT_DEFINITION_1>
w1=$( echo "1 / ( 1 + e( $hartree_to_kcalmol * ( ( ( $freeEnergyX + 2*$G_Ethene - $freeEnergyD - 2*$G_Propene ) ) - ( $DG_referenceProductionBarrier + $magnitude4 ) ) / $kT ) )" | bc -l )

> <WEIGHT_DEFINITION_2>
w1=$( echo "1 / ( 1 + e( $hartree_to_kcalmol * ( ( ( $freeEnergyX + 2*$G_Ethene - $freeEnergyD - 2*$G_Propene ) ) - ( $DG_referenceProductionBarrier + $magnitude4 ) ) / $kT ) )" | bc -l )

> <WEIGHT_DEFINITION_3>
w1=$( echo "1 / ( 1 + e( $hartree_to_kcalmol * ( ( ( $freeEnergyX + 2*$G_Ethene - $freeEnergyD - 2*$G_Propene ) ) - ( $DG_referenceProductionBarrier + $magnitude4 ) ) / $kT ) )" | bc -l )

> <WEIGHT_DEFINITION_4>
w1=$( echo "1 / ( 1 + e( $hartree_to_kcalmol * ( ( ( $freeEnergyX + 2*$G_Ethene - $freeEnergyD - 2*$G_Propene ) ) - ( $DG_referenceProductionBarrier + $magnitude4 ) ) / $kT ) )" | bc -l )

> <CALCULATION_OF_OVERALL_FITNESS>
fitness=$( echo "( $desc1 + $desc2 + $desc3 ) * ( $w1 * $w2 * $w3 * $w4 )" | bc -l )

> <freeEnergyA>
-2312.33407809

> <freeEnergyF>
-2312.31266347

> <freeEnergyE>
-2312.33407809

> <freeEnergyC>
-1967.07543383

> <freeEnergyL>
-834.463870155

> <freeEnergyX>
-2045.6030054

> <freeEnergyZ>
-1967.04663234

> <freeEnergyD>
-1967.0967049

> <G_Propene>
-117.738020895

> <G_Ethene>
-78.4716324751

> <G_HoveydaProd>
-502.204109499

> <G_SIMes>
-924.27249048

> <G_HG_RuCl2_SIMes>
-2402.13728523

> <DG_referenceProductionBarrier>
0.01468968

> <DG_referencePrecursorStabilityHII>
-0.0052201621

> <DG_referencePrecursorStabilityHI>
0.0117775312

> <DDG_referencePrecursorStability>
.0169976933

> <DG_referenceSynt>
0.0226072217

> <hartree_to_kcalmol>
627.49467516

> <boltzmann_constant>
0.0000000000000000000000138066

> <avogadro_number>
602214000000000000000000

> <jmol_to_kcalmol>
0.00023901

> <temp>
313.15

> <kT>
.6223089948281258706000000000

> <magnitude1>
1.43290809

> <magnitude2>
2.86581618

> <magnitude3>
4.29872427

> <magnitude4>
5.73163236

> <DFT_IDENTIFIER>
1723609989647

> <DFT_MACHINE>
158.39.114.73

> <XTB_IDENTIFIER>
NREC

> <XTB_MACHINE>
NREC

> <DESCRIPTOR_1>
3.96022919062651741764

> <DESCRIPTOR_2>
14.806502529402830232

> <DESCRIPTOR_3>
0.0000000001

> <WEIGHT_1>
.99310687098645901215

> <WEIGHT_2>
.99999992432845840622

> <WEIGHT_3>
.99999999999994635913

> <WEIGHT_4>
.99999995809805428619

> <FITNESS>
18.63736802595843276228

$$$$
