
  CDK     08142405323D

 64 66  0  0  0  0  0  0  0  0999 V2000
    2.0566    0.5697   -1.3391 Ru  0  0  0  0  0  0  0  0  0  0  0  0
    3.5222    0.6614   -2.6607 C   0  0  0  0  0  0  0  0  0  0  0  0
    3.1944    0.8755   -3.6927 H   0  0  0  0  0  0  0  0  0  0  0  0
    3.7986    1.9592   -1.8135 C   0  0  0  0  0  0  0  0  0  0  0  0
    3.7093    2.8161   -2.5054 H   0  0  0  0  0  0  0  0  0  0  0  0
    2.7966    2.2423   -0.6190 C   0  0  0  0  0  0  0  0  0  0  0  0
    3.2736    2.1577    0.3735 H   0  0  0  0  0  0  0  0  0  0  0  0
    2.1791    3.1431   -0.7819 H   0  0  0  0  0  0  0  0  0  0  0  0
    4.7996    1.8375   -1.3614 H   0  0  0  0  0  0  0  0  0  0  0  0
    4.3017   -0.1115   -2.5423 H   0  0  0  0  0  0  0  0  0  0  0  0
    0.7500    1.8319   -2.9073 Cl  0  0  0  0  0  0  0  0  0  0  0  0
    3.5601   -0.6743    0.0309 Cl  0  0  0  0  0  0  0  0  0  0  0  0
    0.5486   -0.6130   -1.0678 C   0  0  0  0  0  0  0  0  0  0  0  0
    0.4678   -1.8611   -1.9608 C   0  0  0  0  0  0  0  0  0  0  0  0
   -0.5218   -0.5392   -0.2741 N   0  0  0  0  0  0  0  0  0  0  0  0
   -1.5716   -1.6177   -0.5623 C   0  0  0  0  0  0  0  0  0  0  0  0
   -1.0399   -2.1940   -1.8871 C   0  0  0  0  0  0  0  0  0  0  0  0
   -1.5584   -1.6988   -2.7317 H   0  0  0  0  0  0  0  0  0  0  0  0
   -1.2237   -3.2828   -1.9637 H   0  0  0  0  0  0  0  0  0  0  0  0
    0.9139   -1.6249   -3.4129 C   0  0  0  0  0  0  0  0  0  0  0  0
    0.4159   -0.7403   -3.8518 H   0  0  0  0  0  0  0  0  0  0  0  0
    0.6726   -2.5246   -4.0149 H   0  0  0  0  0  0  0  0  0  0  0  0
    2.0080   -1.4651   -3.4741 H   0  0  0  0  0  0  0  0  0  0  0  0
    1.3411   -2.9748   -1.3393 C   0  0  0  0  0  0  0  0  0  0  0  0
    1.2244   -3.8975   -1.9438 H   0  0  0  0  0  0  0  0  0  0  0  0
    1.0543   -3.2054   -0.2962 H   0  0  0  0  0  0  0  0  0  0  0  0
    2.4063   -2.6771   -1.3226 H   0  0  0  0  0  0  0  0  0  0  0  0
   -0.7323    0.3570    0.8558 C   0  0  0  0  0  0  0  0  0  0  0  0
   -1.5694    1.7785    3.1330 C   0  0  0  0  0  0  0  0  0  0  0  0
   -1.5478    1.5149    0.6981 C   0  0  0  0  0  0  0  0  0  0  0  0
   -0.2355   -0.0198    2.1382 C   0  0  0  0  0  0  0  0  0  0  0  0
   -0.6899    0.7021    3.2590 C   0  0  0  0  0  0  0  0  0  0  0  0
   -1.9587    2.1968    1.8594 C   0  0  0  0  0  0  0  0  0  0  0  0
   -0.3277    0.4122    4.2554 H   0  0  0  0  0  0  0  0  0  0  0  0
   -2.5952    3.0864    1.7517 H   0  0  0  0  0  0  0  0  0  0  0  0
   -1.9227    2.3143    4.0260 H   0  0  0  0  0  0  0  0  0  0  0  0
   -1.9045    2.1439   -0.6442 C   0  0  0  0  0  0  0  0  0  0  0  0
   -1.5344    1.4873   -1.4555 H   0  0  0  0  0  0  0  0  0  0  0  0
   -1.1519    3.4842   -0.7708 C   0  0  0  0  0  0  0  0  0  0  0  0
   -1.5248    4.2167   -0.0249 H   0  0  0  0  0  0  0  0  0  0  0  0
   -1.2937    3.9089   -1.7837 H   0  0  0  0  0  0  0  0  0  0  0  0
   -0.0662    3.3465   -0.6201 H   0  0  0  0  0  0  0  0  0  0  0  0
   -3.4111    2.3950   -0.8305 C   0  0  0  0  0  0  0  0  0  0  0  0
   -3.6007    2.8010   -1.8446 H   0  0  0  0  0  0  0  0  0  0  0  0
   -3.7880    3.1453   -0.1051 H   0  0  0  0  0  0  0  0  0  0  0  0
   -4.0210    1.4805   -0.7082 H   0  0  0  0  0  0  0  0  0  0  0  0
    0.8416   -1.0728    2.3818 C   0  0  0  0  0  0  0  0  0  0  0  0
    1.1327   -1.5190    1.4110 H   0  0  0  0  0  0  0  0  0  0  0  0
    2.0927   -0.3756    2.9544 C   0  0  0  0  0  0  0  0  0  0  0  0
    2.4194    0.4590    2.3084 H   0  0  0  0  0  0  0  0  0  0  0  0
    2.9345   -1.0925    3.0144 H   0  0  0  0  0  0  0  0  0  0  0  0
    1.8927    0.0162    3.9733 H   0  0  0  0  0  0  0  0  0  0  0  0
    0.4070   -2.1899    3.3468 C   0  0  0  0  0  0  0  0  0  0  0  0
    1.2294   -2.9240    3.4660 H   0  0  0  0  0  0  0  0  0  0  0  0
   -0.4910   -2.7356    3.0036 H   0  0  0  0  0  0  0  0  0  0  0  0
    0.1847   -1.7827    4.3547 H   0  0  0  0  0  0  0  0  0  0  0  0
   -2.9584   -1.0035   -0.7437 C   0  0  0  0  0  0  0  0  0  0  0  0
   -2.9690   -0.2677   -1.5673 H   0  0  0  0  0  0  0  0  0  0  0  0
   -3.3152   -0.5149    0.1831 H   0  0  0  0  0  0  0  0  0  0  0  0
   -3.6702   -1.8145   -0.9973 H   0  0  0  0  0  0  0  0  0  0  0  0
   -1.6271   -2.6394    0.5771 C   0  0  0  0  0  0  0  0  0  0  0  0
   -2.3735   -3.4188    0.3265 H   0  0  0  0  0  0  0  0  0  0  0  0
   -1.9466   -2.1547    1.5194 H   0  0  0  0  0  0  0  0  0  0  0  0
   -0.6555   -3.1351    0.7479 H   0  0  0  0  0  0  0  0  0  0  0  0
  2  4  1  0  0  0  0
  2  1  1  0  0  0  0
  2  3  1  0  0  0  0
  4  6  1  0  0  0  0
  4  5  1  0  0  0  0
  6  1  1  0  0  0  0
  6  8  1  0  0  0  0
  7  6  1  0  0  0  0
  9  4  1  0  0  0  0
 10  2  1  0  0  0  0
  1 11  1  0  0  0  0
  1 12  1  0  0  0  0
 13 14  1  0  0  0  0
 13 15  1  0  0  0  0
 14 17  1  0  0  0  0
 14 20  1  0  0  0  0
 14 24  1  0  0  0  0
 15 16  1  0  0  0  0
 16 17  1  0  0  0  0
 17 18  1  0  0  0  0
 17 19  1  0  0  0  0
 20 21  1  0  0  0  0
 20 22  1  0  0  0  0
 20 23  1  0  0  0  0
 24 25  1  0  0  0  0
 24 26  1  0  0  0  0
 24 27  1  0  0  0  0
 28 31  2  0  0  0  0
 28 30  1  0  0  0  0
 29 32  2  0  0  0  0
 29 33  1  0  0  0  0
 29 36  1  0  0  0  0
 30 33  2  0  0  0  0
 31 32  1  0  0  0  0
 32 34  1  0  0  0  0
 33 35  1  0  0  0  0
 15 28  1  0  0  0  0
 37 38  1  0  0  0  0
 37 39  1  0  0  0  0
 37 43  1  0  0  0  0
 39 40  1  0  0  0  0
 39 41  1  0  0  0  0
 39 42  1  0  0  0  0
 43 44  1  0  0  0  0
 43 45  1  0  0  0  0
 43 46  1  0  0  0  0
 30 37  1  0  0  0  0
 47 48  1  0  0  0  0
 47 49  1  0  0  0  0
 47 53  1  0  0  0  0
 49 50  1  0  0  0  0
 49 51  1  0  0  0  0
 49 52  1  0  0  0  0
 53 54  1  0  0  0  0
 53 55  1  0  0  0  0
 53 56  1  0  0  0  0
 31 47  1  0  0  0  0
 57 58  1  0  0  0  0
 57 59  1  0  0  0  0
 57 60  1  0  0  0  0
 16 57  1  0  0  0  0
 61 62  1  0  0  0  0
 61 63  1  0  0  0  0
 61 64  1  0  0  0  0
 16 61  1  0  0  0  0
  1 13  1  0  0  0  0
M  END
>  <DFT-ENERGY>
-1967.09670499

$$$$
