
  CDK     08132419383D

 70 72  0  0  0  0  0  0  0  0999 V2000
   -1.5243    4.0465   -2.8125 C   0  0  0  0  0  0  0  0  0  0  0  0
   -0.4752    4.2219   -3.1075 H   0  0  0  0  0  0  0  0  0  0  0  0
   -2.1361    4.9418   -3.0631 H   0  0  0  0  0  0  0  0  0  0  0  0
   -1.9159    3.2106   -3.4262 H   0  0  0  0  0  0  0  0  0  0  0  0
   -1.6617    3.7754   -1.3326 C   0  0  0  0  0  0  0  0  0  0  0  0
   -2.6932    3.6055   -0.9709 H   0  0  0  0  0  0  0  0  0  0  0  0
   -0.7840    4.3359   -0.3651 C   0  0  0  0  0  0  0  0  0  0  0  0
    0.1622    4.7507   -0.7557 H   0  0  0  0  0  0  0  0  0  0  0  0
   -1.3146    4.8913    0.9346 C   0  0  0  0  0  0  0  0  0  0  0  0
   -0.5153    5.0824    1.6749 H   0  0  0  0  0  0  0  0  0  0  0  0
   -1.8143    5.8612    0.7219 H   0  0  0  0  0  0  0  0  0  0  0  0
   -2.0674    4.2059    1.3717 H   0  0  0  0  0  0  0  0  0  0  0  0
    0.3962    2.6133    0.6477 C   0  0  0  0  0  0  0  0  0  0  0  0
    0.0286    2.6807    1.6931 H   0  0  0  0  0  0  0  0  0  0  0  0
    1.4330    2.9626    0.4503 H   0  0  0  0  0  0  0  0  0  0  0  0
   -0.6495    1.9121   -0.6881 Ru  0  0  0  0  0  0  0  0  0  0  0  0
   -2.5581    1.6383    0.7617 Cl  0  0  0  0  0  0  0  0  0  0  0  0
    1.1195    2.3196   -2.2504 Cl  0  0  0  0  0  0  0  0  0  0  0  0
   -0.5911   -0.0224   -0.8661 C   0  0  0  0  0  0  0  0  0  0  0  0
   -1.3766   -0.5945   -2.0577 C   0  0  0  0  0  0  0  0  0  0  0  0
   -0.1015   -1.0255   -0.1280 N   0  0  0  0  0  0  0  0  0  0  0  0
   -0.5459   -2.4126   -0.6014 C   0  0  0  0  0  0  0  0  0  0  0  0
   -1.6607   -2.0386   -1.5964 C   0  0  0  0  0  0  0  0  0  0  0  0
   -2.6368   -2.0663   -1.0727 H   0  0  0  0  0  0  0  0  0  0  0  0
   -1.7066   -2.7479   -2.4450 H   0  0  0  0  0  0  0  0  0  0  0  0
   -2.6691    0.1880   -2.3413 C   0  0  0  0  0  0  0  0  0  0  0  0
   -3.3224    0.2377   -1.4510 H   0  0  0  0  0  0  0  0  0  0  0  0
   -3.2150   -0.2855   -3.1826 H   0  0  0  0  0  0  0  0  0  0  0  0
   -2.4439    1.2309   -2.6526 H   0  0  0  0  0  0  0  0  0  0  0  0
   -0.4836   -0.5522   -3.3189 C   0  0  0  0  0  0  0  0  0  0  0  0
   -1.0295   -1.0270   -4.1599 H   0  0  0  0  0  0  0  0  0  0  0  0
    0.4712   -1.0922   -3.1789 H   0  0  0  0  0  0  0  0  0  0  0  0
   -0.2260    0.4899   -3.5863 H   0  0  0  0  0  0  0  0  0  0  0  0
    0.8660   -0.9211    0.9536 C   0  0  0  0  0  0  0  0  0  0  0  0
    2.7730   -1.1409    3.0121 C   0  0  0  0  0  0  0  0  0  0  0  0
    0.4309   -0.9778    2.3099 C   0  0  0  0  0  0  0  0  0  0  0  0
    2.2549   -0.8675    0.6334 C   0  0  0  0  0  0  0  0  0  0  0  0
    3.1822   -0.9978    1.6855 C   0  0  0  0  0  0  0  0  0  0  0  0
    1.4110   -1.0985    3.3142 C   0  0  0  0  0  0  0  0  0  0  0  0
    4.2554   -0.9738    1.4495 H   0  0  0  0  0  0  0  0  0  0  0  0
    1.0875   -1.1524    4.3633 H   0  0  0  0  0  0  0  0  0  0  0  0
    3.5170   -1.2551    3.8139 H   0  0  0  0  0  0  0  0  0  0  0  0
   -1.0160   -0.8224    2.7703 C   0  0  0  0  0  0  0  0  0  0  0  0
   -1.6640   -0.7364    1.8765 H   0  0  0  0  0  0  0  0  0  0  0  0
   -1.1655    0.4914    3.5625 C   0  0  0  0  0  0  0  0  0  0  0  0
   -0.5753    0.4579    4.5020 H   0  0  0  0  0  0  0  0  0  0  0  0
   -2.2289    0.6580    3.8248 H   0  0  0  0  0  0  0  0  0  0  0  0
   -0.8386    1.3600    2.9651 H   0  0  0  0  0  0  0  0  0  0  0  0
   -1.5006   -1.9844    3.6576 C   0  0  0  0  0  0  0  0  0  0  0  0
   -2.5752   -1.8522    3.8968 H   0  0  0  0  0  0  0  0  0  0  0  0
   -0.9535   -2.0051    4.6227 H   0  0  0  0  0  0  0  0  0  0  0  0
   -1.3740   -2.9758    3.1851 H   0  0  0  0  0  0  0  0  0  0  0  0
    2.8212   -0.5881   -0.7564 C   0  0  0  0  0  0  0  0  0  0  0  0
    1.9803   -0.4472   -1.4625 H   0  0  0  0  0  0  0  0  0  0  0  0
    3.6156    0.7324   -0.7299 C   0  0  0  0  0  0  0  0  0  0  0  0
    3.0016    1.5645   -0.3434 H   0  0  0  0  0  0  0  0  0  0  0  0
    3.9279    1.0086   -1.7559 H   0  0  0  0  0  0  0  0  0  0  0  0
    4.5260    0.6344   -0.1028 H   0  0  0  0  0  0  0  0  0  0  0  0
    3.7429   -1.7077   -1.2739 C   0  0  0  0  0  0  0  0  0  0  0  0
    4.0967   -1.4623   -2.2958 H   0  0  0  0  0  0  0  0  0  0  0  0
    3.2489   -2.6957   -1.3109 H   0  0  0  0  0  0  0  0  0  0  0  0
    4.6425   -1.8091   -0.6323 H   0  0  0  0  0  0  0  0  0  0  0  0
   -1.0972   -3.2511    0.5502 C   0  0  0  0  0  0  0  0  0  0  0  0
   -1.9581   -2.7581    1.0352 H   0  0  0  0  0  0  0  0  0  0  0  0
   -0.3215   -3.4589    1.3117 H   0  0  0  0  0  0  0  0  0  0  0  0
   -1.4421   -4.2224    0.1426 H   0  0  0  0  0  0  0  0  0  0  0  0
    0.6218   -3.1728   -1.2391 C   0  0  0  0  0  0  0  0  0  0  0  0
    0.2587   -4.1536   -1.6050 H   0  0  0  0  0  0  0  0  0  0  0  0
    1.4138   -3.3634   -0.4899 H   0  0  0  0  0  0  0  0  0  0  0  0
    1.0676   -2.6310   -2.0911 H   0  0  0  0  0  0  0  0  0  0  0  0
  1  2  1  0  0  0  0
  1  5  1  0  0  0  0
  3  1  1  0  0  0  0
  4  1  1  0  0  0  0
  5  6  1  0  0  0  0
  5 16  1  0  0  0  0
  5  7  1  0  0  0  0
  7  9  1  0  0  0  0
  7  8  1  0  0  0  0
  9 10  1  0  0  0  0
 11  9  1  0  0  0  0
 12  9  1  0  0  0  0
 13 14  1  0  0  0  0
 13 15  1  0  0  0  0
 13  7  1  0  0  0  0
 16 13  1  0  0  0  0
 16 17  1  0  0  0  0
 16 18  1  0  0  0  0
 19 20  1  0  0  0  0
 19 21  1  0  0  0  0
 20 23  1  0  0  0  0
 20 26  1  0  0  0  0
 20 30  1  0  0  0  0
 21 22  1  0  0  0  0
 22 23  1  0  0  0  0
 23 24  1  0  0  0  0
 23 25  1  0  0  0  0
 26 27  1  0  0  0  0
 26 28  1  0  0  0  0
 26 29  1  0  0  0  0
 30 31  1  0  0  0  0
 30 32  1  0  0  0  0
 30 33  1  0  0  0  0
 34 37  2  0  0  0  0
 34 36  1  0  0  0  0
 35 38  2  0  0  0  0
 35 39  1  0  0  0  0
 35 42  1  0  0  0  0
 36 39  2  0  0  0  0
 37 38  1  0  0  0  0
 38 40  1  0  0  0  0
 39 41  1  0  0  0  0
 21 34  1  0  0  0  0
 43 44  1  0  0  0  0
 43 45  1  0  0  0  0
 43 49  1  0  0  0  0
 45 46  1  0  0  0  0
 45 47  1  0  0  0  0
 45 48  1  0  0  0  0
 49 50  1  0  0  0  0
 49 51  1  0  0  0  0
 49 52  1  0  0  0  0
 36 43  1  0  0  0  0
 53 54  1  0  0  0  0
 53 55  1  0  0  0  0
 53 59  1  0  0  0  0
 55 56  1  0  0  0  0
 55 57  1  0  0  0  0
 55 58  1  0  0  0  0
 59 60  1  0  0  0  0
 59 61  1  0  0  0  0
 59 62  1  0  0  0  0
 37 53  1  0  0  0  0
 63 64  1  0  0  0  0
 63 65  1  0  0  0  0
 63 66  1  0  0  0  0
 22 63  1  0  0  0  0
 67 68  1  0  0  0  0
 67 69  1  0  0  0  0
 67 70  1  0  0  0  0
 22 67  1  0  0  0  0
 16 19  1  0  0  0  0
M  END
>  <DFT-ENERGY>
-2045.60300569

$$$$
