UFECOYMODN1_A2
  CDK     02022410443D

 73 77  0  0  0  0  0  0  0  0999 V2000
    0.6893    0.2845   -0.0638 Ru  0  0  0  0  0  0  0  0  0  0  0  0
    2.4671    0.2845   -1.4530 O   0  0  0  0  0  0  0  0  0  0  0  0
    1.8995    1.2178    0.9403 C   0  0  0  0  0  0  0  0  0  0  0  0
    1.6667    1.5107    1.9630 H   0  0  0  0  0  0  0  0  0  0  0  0
    2.7026   -0.4907   -2.6788 C   0  0  0  0  0  0  0  0  0  0  0  0
    3.1140    0.2085   -3.4371 H   0  0  0  0  0  0  0  0  0  0  0  0
    1.2799   -0.9287   -2.9963 C   0  0  0  0  0  0  0  0  0  0  0  0
    1.2073   -1.4234   -3.9675 H   0  0  0  0  0  0  0  0  0  0  0  0
    0.8920   -1.6263   -2.2258 H   0  0  0  0  0  0  0  0  0  0  0  0
    0.5938   -0.0557   -2.9985 H   0  0  0  0  0  0  0  0  0  0  0  0
    3.6392   -1.6380   -2.3448 C   0  0  0  0  0  0  0  0  0  0  0  0
    3.6327   -2.4090   -3.1215 H   0  0  0  0  0  0  0  0  0  0  0  0
    4.6730   -1.3108   -2.1941 H   0  0  0  0  0  0  0  0  0  0  0  0
    3.3184   -2.1221   -1.4009 H   0  0  0  0  0  0  0  0  0  0  0  0
    3.4593    1.0829   -0.9480 C   0  0  0  0  0  0  0  0  0  0  0  0
    4.6284    1.4316   -1.6010 C   0  0  0  0  0  0  0  0  0  0  0  0
    4.8470    1.0814   -2.6071 H   0  0  0  0  0  0  0  0  0  0  0  0
    5.5296    2.2627   -0.9435 C   0  0  0  0  0  0  0  0  0  0  0  0
    6.4521    2.5504   -1.4523 H   0  0  0  0  0  0  0  0  0  0  0  0
    5.2796    2.7343    0.3418 C   0  0  0  0  0  0  0  0  0  0  0  0
    6.0043    3.3790    0.8359 H   0  0  0  0  0  0  0  0  0  0  0  0
    4.1099    2.3740    0.9834 C   0  0  0  0  0  0  0  0  0  0  0  0
    3.9167    2.7286    1.9947 H   0  0  0  0  0  0  0  0  0  0  0  0
    3.1744    1.5586    0.3440 C   0  0  0  0  0  0  0  0  0  0  0  0
    1.2862   -1.8976    0.4939 Cl  0  0  0  0  0  0  0  0  0  0  0  0
   -0.1432    2.0100   -1.4386 Cl  0  0  0  0  0  0  0  0  0  0  0  0
   -2.1156   -0.3939    0.6335 N   0  0  0  0  0  0  0  0  0  0  0  0
   -1.2398    0.7218    2.3349 N   0  0  0  0  0  0  0  0  0  0  0  0
   -0.9205    0.2368    1.0574 C   0  0  0  0  0  0  0  0  0  0  0  0
   -3.1268   -0.2912    1.6316 C   0  0  0  0  0  0  0  0  0  0  0  0
   -4.1081   -0.7089    1.4971 H   0  0  0  0  0  0  0  0  0  0  0  0
   -2.5862    0.3991    2.6862 C   0  0  0  0  0  0  0  0  0  0  0  0
   -3.0139    0.6877    3.6283 H   0  0  0  0  0  0  0  0  0  0  0  0
   -2.3730   -1.0728   -0.6162 C   0  0  0  0  0  0  0  0  0  0  0  0
   -2.9267   -0.3514   -1.7037 C   0  0  0  0  0  0  0  0  0  0  0  0
   -3.2472   -1.0415   -2.8800 C   0  0  0  0  0  0  0  0  0  0  0  0
   -3.6683   -0.4931   -3.7204 H   0  0  0  0  0  0  0  0  0  0  0  0
   -3.0305   -2.4223   -2.9891 C   0  0  0  0  0  0  0  0  0  0  0  0
   -2.4859   -3.1252   -1.9077 C   0  0  0  0  0  0  0  0  0  0  0  0
   -2.3146   -4.1967   -1.9880 H   0  0  0  0  0  0  0  0  0  0  0  0
   -2.1539   -2.4683   -0.7138 C   0  0  0  0  0  0  0  0  0  0  0  0
   -3.1915    1.1140   -1.6386 C   0  0  0  0  0  0  0  0  0  0  0  0
   -2.7904    1.5963   -0.7337 H   0  0  0  0  0  0  0  0  0  0  0  0
   -4.2649    1.3348   -1.6900 H   0  0  0  0  0  0  0  0  0  0  0  0
   -2.6996    1.6402   -2.4770 H   0  0  0  0  0  0  0  0  0  0  0  0
   -3.3887   -3.1306   -4.2548 C   0  0  0  0  0  0  0  0  0  0  0  0
   -2.8948   -2.6718   -5.1238 H   0  0  0  0  0  0  0  0  0  0  0  0
   -4.4723   -3.0870   -4.4394 H   0  0  0  0  0  0  0  0  0  0  0  0
   -3.1051   -4.1911   -4.2461 H   0  0  0  0  0  0  0  0  0  0  0  0
   -1.5918   -3.2705    0.4099 C   0  0  0  0  0  0  0  0  0  0  0  0
   -1.2606   -2.6622    1.2659 H   0  0  0  0  0  0  0  0  0  0  0  0
   -0.6878   -3.8187    0.0882 H   0  0  0  0  0  0  0  0  0  0  0  0
   -2.3138   -4.0081    0.7822 H   0  0  0  0  0  0  0  0  0  0  0  0
   -0.4059    1.4567    3.2537 C   0  0  0  0  0  0  0  0  0  0  0  0
    0.3289    0.7561    4.2384 C   0  0  0  0  0  0  0  0  0  0  0  0
    1.0310    1.4910    5.2018 C   0  0  0  0  0  0  0  0  0  0  0  0
    1.5875    0.9646    5.9745 H   0  0  0  0  0  0  0  0  0  0  0  0
    1.0292    2.8926    5.1749 C   0  0  0  0  0  0  0  0  0  0  0  0
    0.3501    3.5733    4.1519 C   0  0  0  0  0  0  0  0  0  0  0  0
    0.3811    4.6604    4.1147 H   0  0  0  0  0  0  0  0  0  0  0  0
   -0.3612    2.8698    3.1743 C   0  0  0  0  0  0  0  0  0  0  0  0
    0.3811   -0.7331    4.2191 C   0  0  0  0  0  0  0  0  0  0  0  0
    1.0647   -1.1512    4.9682 H   0  0  0  0  0  0  0  0  0  0  0  0
    0.7290   -1.0999    3.2290 H   0  0  0  0  0  0  0  0  0  0  0  0
   -0.6083   -1.1813    4.3880 H   0  0  0  0  0  0  0  0  0  0  0  0
    1.7639    3.6710    6.2165 C   0  0  0  0  0  0  0  0  0  0  0  0
    2.1694    3.0381    7.0169 H   0  0  0  0  0  0  0  0  0  0  0  0
    1.1128    4.4171    6.6949 H   0  0  0  0  0  0  0  0  0  0  0  0
    2.6119    4.2176    5.7772 H   0  0  0  0  0  0  0  0  0  0  0  0
   -1.0258    3.5784    2.0447 C   0  0  0  0  0  0  0  0  0  0  0  0
   -0.8348    4.6585    2.0386 H   0  0  0  0  0  0  0  0  0  0  0  0
   -2.1157    3.4358    2.0529 H   0  0  0  0  0  0  0  0  0  0  0  0
   -0.6644    3.1860    1.0677 H   0  0  0  0  0  0  0  0  0  0  0  0
  1  2  1  0  0  0  0
  1  3  2  0  0  0  0
  3  4  1  0  0  0  0
  2  5  1  0  0  0  0
  5  6  1  0  0  0  0
  5  7  1  0  0  0  0
  7  8  1  0  0  0  0
  7  9  1  0  0  0  0
  7 10  1  0  0  0  0
  5 11  1  0  0  0  0
 11 12  1  0  0  0  0
 11 13  1  0  0  0  0
 11 14  1  0  0  0  0
  2 15  1  0  0  0  0
 15 24  1  0  0  0  0
 15 16  2  0  0  0  0
 16 17  1  0  0  0  0
 16 18  1  0  0  0  0
 18 19  1  0  0  0  0
 18 20  2  0  0  0  0
 20 21  1  0  0  0  0
 20 22  1  0  0  0  0
 22 24  2  0  0  0  0
 22 23  1  0  0  0  0
  3 24  1  0  0  0  0
  1 25  1  0  0  0  0
  1 26  1  0  0  0  0
 27 29  1  0  0  0  0
 28 29  1  0  0  0  0
 27 30  1  0  0  0  0
 30 31  1  0  0  0  0
 28 32  1  0  0  0  0
 32 33  1  0  0  0  0
 27 34  1  0  0  0  0
 34 35  2  0  0  0  0
 35 36  1  0  0  0  0
 36 37  1  0  0  0  0
 36 38  2  0  0  0  0
 38 39  1  0  0  0  0
 39 40  1  0  0  0  0
 34 41  1  0  0  0  0
 35 42  1  0  0  0  0
 42 43  1  0  0  0  0
 42 44  1  0  0  0  0
 42 45  1  0  0  0  0
 38 46  1  0  0  0  0
 46 47  1  0  0  0  0
 46 48  1  0  0  0  0
 46 49  1  0  0  0  0
 41 50  1  0  0  0  0
 50 51  1  0  0  0  0
 50 52  1  0  0  0  0
 50 53  1  0  0  0  0
 28 54  1  0  0  0  0
 54 55  1  0  0  0  0
 55 56  2  0  0  0  0
 56 57  1  0  0  0  0
 56 58  1  0  0  0  0
 58 59  2  0  0  0  0
 59 60  1  0  0  0  0
 54 61  2  0  0  0  0
 55 62  1  0  0  0  0
 62 63  1  0  0  0  0
 62 64  1  0  0  0  0
 62 65  1  0  0  0  0
 58 66  1  0  0  0  0
 66 67  1  0  0  0  0
 66 68  1  0  0  0  0
 66 69  1  0  0  0  0
 61 70  1  0  0  0  0
 70 71  1  0  0  0  0
 70 72  1  0  0  0  0
 70 73  1  0  0  0  0
 30 32  2  0  0  0  0
 39 41  2  0  0  0  0
 59 61  1  0  0  0  0
  1 29  1  0  0  0  0
M  END
> <FrozenCore-PM6_ENERGY>
65.539

> <RMSD_CONF_CG-CS>
0.782133

> <RMSD_CONF_GO-CS>
0.000000

> <UID>


> <freeEnergyA>
-2400.94412028

> <freeEnergyF>
-2400.92847469

> <freeEnergyE>
-2400.94412028

> <freeEnergyC>
-2055.68864266

> <freeEnergyL>
-923.082037925

> <freeEnergyX>
-2134.22385645

> <freeEnergyZ>
-2055.67028667

> <freeEnergyD>
-2055.71274937

> <G_Propene>
-117.738020895

> <G_Ethene>
-78.4716324751

> <G_HoveydaProd>
-502.204109499

> <G_SIMes>
-924.27249048

> <G_HG_RuCl2_SIMes>
-2402.13728523

> <DG_referenceProductionBarrier>
0.01468968

> <hartree_to_kcalmol>
627.49467516

> <DFT_IDENTIFIER>
1706927580334

> <DFT_MACHINE>
158.36.42.38

> <XTB_IDENTIFIER>
NREC

> <XTB_MACHINE>
NREC

> <DE_Synth>
1.70201341943060820

> <DESCRIPTOR_DEFINITION_1>
desc1=( echo "1 * ( e( $hartree_to_kcalmol * ( ( $freeEnergyZ - $freeEnergyD ) - ( $freeEnergyX + 2*$G_Ethene - $freeEnergyD - 2*$G_Propene ) - $DDG_reference_HGII ) / $kT ) ) " | bc -l )

> <DESCRIPTOR_DEFINITION_2>
desc2=$( echo "1 * ( $hartree_to_kcalmol * ( ( $freeEnergyZ - $freeEnergyD ) - ( $freeEnergyX + 2*$G_Ethene - $freeEnergyD - 2*$G_Propene ) ) )" | bc -l )

> <DESCRIPTOR_DEFINITION_3>
desc3=$( echo "1 * $hartree_to_kcalmol * ( $DG_referenceProductionBarrier - ( $freeEnergyX + 2*$G_Ethene - $freeEnergyD - 2*$G_Propene ) )" | bc -l )

> <WEIGHT_DEFINITION_1>
w1=$( echo "1 / ( 1 + e( $hartree_to_kcalmol * ( ( ( $freeEnergyX + 2*$G_Ethene - $freeEnergyD - 2*$G_Propene ) ) - ( $DG_referenceProductionBarrier + $magnitude4 ) ) / $kT ) )" | bc -l )

> <WEIGHT_DEFINITION_2>
w2=$( echo "1 / ( 1 + e( $hartree_to_kcalmol * ( ABS( $freeEnergyC + $G_HoveydaProd - $freeEnergyA - 2*${G_Ethene} - $DG_referencePrecursorStabilityHII ) - ( $DDG_referencePrecursorStability + $magnitude1 ) ) / $kT ) )" | bc -l )

> <WEIGHT_DEFINITION_3>
w3=$( echo "1 / ( 1 + e( $hartree_to_kcalmol * ( ( $freeEnergyE + $G_SIMes - $G_HG_RuCl2_SIMes - $freeEnergyL ) - ( $DG_referenceSynt  + $magnitude1 ) ) / $kT ) )" | bc -l )

> <WEIGHT_DEFINITION_4>
w4=$( echo "1 / ( 1 + e( $hartree_to_kcalmol * ( - ( $freeEnergyF - $freeEnergyA ) + $magnitude2 ) / $kT ) )" | bc -l )

> <FITNESS_DEFINITION>
fitness=$( echo "( $desc1 + $desc2 + $desc3 ) * $w1 * $w2 * $w3 * $w4" | bc -l )

> <DESCRIPTOR_1>
.23449107775256252879

> <DESCRIPTOR_2>
13.047459256420305432

> <DESCRIPTOR_3>
.377541583730141400

> <WEIGHT_1>
.99994548315128003498

> <WEIGHT_2>
.99999999582399886641

> <WEIGHT_3>
.99999999980600263318

> <WEIGHT_4>
.99998592125682291467

> <FITNESS>
13.65855488776607543894

$$$$
