
  CDK     02032402463D

 59 62  0  0  0  0  0  0  0  0999 V2000
    1.1947    0.7186   -0.1352 Ru  0  0  0  0  0  0  0  0  0  0  0  0
    2.7283    0.7031   -1.3492 C   0  0  0  0  0  0  0  0  0  0  0  0
    2.5219    1.0600   -2.3740 H   0  0  0  0  0  0  0  0  0  0  0  0
    3.1061    1.8688   -0.3467 C   0  0  0  0  0  0  0  0  0  0  0  0
    3.1823    2.7882   -0.9551 H   0  0  0  0  0  0  0  0  0  0  0  0
    2.0744    2.1871    0.8114 C   0  0  0  0  0  0  0  0  0  0  0  0
    2.4581    1.9372    1.8167 H   0  0  0  0  0  0  0  0  0  0  0  0
    1.5901    3.1740    0.7035 H   0  0  0  0  0  0  0  0  0  0  0  0
    4.0433    1.5587    0.1501 H   0  0  0  0  0  0  0  0  0  0  0  0
    3.3896   -0.1773   -1.2614 H   0  0  0  0  0  0  0  0  0  0  0  0
    0.1732    2.3434   -1.5637 Cl  0  0  0  0  0  0  0  0  0  0  0  0
    2.3841   -0.8047    1.2754 Cl  0  0  0  0  0  0  0  0  0  0  0  0
   -1.4755   -0.1601    1.0176 N   0  0  0  0  0  0  0  0  0  0  0  0
   -0.9715   -1.3181   -0.7537 N   0  0  0  0  0  0  0  0  0  0  0  0
   -0.5182   -0.3137    0.0545 C   0  0  0  0  0  0  0  0  0  0  0  0
   -2.5236   -1.0632    0.8139 C   0  0  0  0  0  0  0  0  0  0  0  0
   -3.3861   -1.0924    1.4824 H   0  0  0  0  0  0  0  0  0  0  0  0
   -2.2062   -1.7920   -0.2995 C   0  0  0  0  0  0  0  0  0  0  0  0
   -2.7298   -2.5988   -0.8159 H   0  0  0  0  0  0  0  0  0  0  0  0
   -1.3814    0.8090    2.0825 C   0  0  0  0  0  0  0  0  0  0  0  0
   -0.7869    0.4164    3.3020 C   0  0  0  0  0  0  0  0  0  0  0  0
   -0.6643    1.3949    4.3029 C   0  0  0  0  0  0  0  0  0  0  0  0
   -0.1993    1.1123    5.2600 H   0  0  0  0  0  0  0  0  0  0  0  0
   -1.1233    2.7116    4.1177 C   0  0  0  0  0  0  0  0  0  0  0  0
   -1.7553    3.0385    2.9052 C   0  0  0  0  0  0  0  0  0  0  0  0
   -2.1535    4.0543    2.7582 H   0  0  0  0  0  0  0  0  0  0  0  0
   -1.9069    2.1015    1.8678 C   0  0  0  0  0  0  0  0  0  0  0  0
   -0.3026   -0.9900    3.5203 C   0  0  0  0  0  0  0  0  0  0  0  0
    0.5970   -1.1887    2.8976 H   0  0  0  0  0  0  0  0  0  0  0  0
   -1.0706   -1.7378    3.2362 H   0  0  0  0  0  0  0  0  0  0  0  0
   -0.0355   -1.1516    4.5811 H   0  0  0  0  0  0  0  0  0  0  0  0
   -0.9348    3.7498    5.1950 C   0  0  0  0  0  0  0  0  0  0  0  0
   -0.9973    3.3036    6.2070 H   0  0  0  0  0  0  0  0  0  0  0  0
   -1.6898    4.5563    5.1221 H   0  0  0  0  0  0  0  0  0  0  0  0
    0.0653    4.2265    5.1107 H   0  0  0  0  0  0  0  0  0  0  0  0
   -2.6023    2.4634    0.5850 C   0  0  0  0  0  0  0  0  0  0  0  0
   -1.8705    2.5326   -0.2497 H   0  0  0  0  0  0  0  0  0  0  0  0
   -3.1158    3.4382    0.6804 H   0  0  0  0  0  0  0  0  0  0  0  0
   -3.3535    1.7003    0.2966 H   0  0  0  0  0  0  0  0  0  0  0  0
   -0.2481   -1.7940   -1.9080 C   0  0  0  0  0  0  0  0  0  0  0  0
   -0.5153   -1.2040   -3.1629 C   0  0  0  0  0  0  0  0  0  0  0  0
    0.2420   -1.6513   -4.2590 C   0  0  0  0  0  0  0  0  0  0  0  0
    0.0541   -1.2014   -5.2461 H   0  0  0  0  0  0  0  0  0  0  0  0
    1.2190   -2.6547   -4.1296 C   0  0  0  0  0  0  0  0  0  0  0  0
    1.4100   -3.2481   -2.8694 C   0  0  0  0  0  0  0  0  0  0  0  0
    2.1442   -4.0610   -2.7585 H   0  0  0  0  0  0  0  0  0  0  0  0
    0.6821   -2.8423   -1.7371 C   0  0  0  0  0  0  0  0  0  0  0  0
   -1.5649   -0.1394   -3.3209 C   0  0  0  0  0  0  0  0  0  0  0  0
   -1.7530    0.0688   -4.3905 H   0  0  0  0  0  0  0  0  0  0  0  0
   -1.2339    0.8034   -2.8329 H   0  0  0  0  0  0  0  0  0  0  0  0
   -2.5240   -0.4347   -2.8491 H   0  0  0  0  0  0  0  0  0  0  0  0
    2.0478   -3.0792   -5.3158 C   0  0  0  0  0  0  0  0  0  0  0  0
    1.4818   -2.9867   -6.2634 H   0  0  0  0  0  0  0  0  0  0  0  0
    2.3955   -4.1259   -5.2178 H   0  0  0  0  0  0  0  0  0  0  0  0
    2.9519   -2.4406   -5.4120 H   0  0  0  0  0  0  0  0  0  0  0  0
    0.8861   -3.5009   -0.4011 C   0  0  0  0  0  0  0  0  0  0  0  0
    1.4967   -4.4169   -0.5062 H   0  0  0  0  0  0  0  0  0  0  0  0
   -0.0784   -3.7771    0.0712 H   0  0  0  0  0  0  0  0  0  0  0  0
    1.4068   -2.8108    0.2987 H   0  0  0  0  0  0  0  0  0  0  0  0
  2  4  1  0  0  0  0
  2  1  1  0  0  0  0
  2  3  1  0  0  0  0
  4  6  1  0  0  0  0
  4  5  1  0  0  0  0
  6  1  1  0  0  0  0
  6  8  1  0  0  0  0
  7  6  1  0  0  0  0
  9  4  1  0  0  0  0
 10  2  1  0  0  0  0
  1 11  1  0  0  0  0
  1 12  1  0  0  0  0
 13 15  1  0  0  0  0
 14 15  1  0  0  0  0
 13 16  1  0  0  0  0
 16 17  1  0  0  0  0
 14 18  1  0  0  0  0
 18 19  1  0  0  0  0
 13 20  1  0  0  0  0
 20 21  2  0  0  0  0
 21 22  1  0  0  0  0
 22 23  1  0  0  0  0
 22 24  2  0  0  0  0
 24 25  1  0  0  0  0
 25 26  1  0  0  0  0
 20 27  1  0  0  0  0
 21 28  1  0  0  0  0
 28 29  1  0  0  0  0
 28 30  1  0  0  0  0
 28 31  1  0  0  0  0
 24 32  1  0  0  0  0
 32 33  1  0  0  0  0
 32 34  1  0  0  0  0
 32 35  1  0  0  0  0
 27 36  1  0  0  0  0
 36 37  1  0  0  0  0
 36 38  1  0  0  0  0
 36 39  1  0  0  0  0
 14 40  1  0  0  0  0
 40 41  1  0  0  0  0
 41 42  2  0  0  0  0
 42 43  1  0  0  0  0
 42 44  1  0  0  0  0
 44 45  2  0  0  0  0
 45 46  1  0  0  0  0
 40 47  2  0  0  0  0
 41 48  1  0  0  0  0
 48 49  1  0  0  0  0
 48 50  1  0  0  0  0
 48 51  1  0  0  0  0
 44 52  1  0  0  0  0
 52 53  1  0  0  0  0
 52 54  1  0  0  0  0
 52 55  1  0  0  0  0
 47 56  1  0  0  0  0
 56 57  1  0  0  0  0
 56 58  1  0  0  0  0
 56 59  1  0  0  0  0
 16 18  2  0  0  0  0
 25 27  2  0  0  0  0
 45 47  1  0  0  0  0
  1 15  1  0  0  0  0
M  END
>  <DFT-ENERGY>
-2055.71274946

$$$$
