
  CDK     02062401343D

 65 69  0  0  0  0  0  0  0  0999 V2000
    1.3813   -0.9554   -2.5508 H   0  0  0  0  0  0  0  0  0  0  0  0
    1.9166   -2.0437   -2.3434 C   0  0  0  0  0  0  0  0  0  0  0  0
    1.7287   -2.3602   -3.3903 H   0  0  0  0  0  0  0  0  0  0  0  0
    1.0558   -2.4300   -1.2010 C   0  0  0  0  0  0  0  0  0  0  0  0
    1.4648   -3.1197   -0.4497 H   0  0  0  0  0  0  0  0  0  0  0  0
   -0.0284   -2.5108   -1.3942 H   0  0  0  0  0  0  0  0  0  0  0  0
    1.7785   -0.4627   -0.8937 Ru  0  0  0  0  0  0  0  0  0  0  0  0
    3.2467   -1.5815   -1.8556 C   0  0  0  0  0  0  0  0  0  0  0  0
    3.7946   -2.2180   -1.1434 H   0  0  0  0  0  0  0  0  0  0  0  0
    3.8671   -1.0293   -2.5818 H   0  0  0  0  0  0  0  0  0  0  0  0
    2.6071   -1.4949    1.1465 Cl  0  0  0  0  0  0  0  0  0  0  0  0
    2.0540    1.2918   -2.5002 Cl  0  0  0  0  0  0  0  0  0  0  0  0
    1.7602    0.9249    0.5896 C   0  0  0  0  0  0  0  0  0  0  0  0
    2.7781    1.8785    1.2221 C   0  0  0  0  0  0  0  0  0  0  0  0
    2.0733    2.2315    2.5576 C   0  0  0  0  0  0  0  0  0  0  0  0
    2.3749    1.4956    3.3269 H   0  0  0  0  0  0  0  0  0  0  0  0
    2.3368    3.2429    2.9204 H   0  0  0  0  0  0  0  0  0  0  0  0
    0.5515    2.0828    2.3239 C   0  0  0  0  0  0  0  0  0  0  0  0
    0.5669    1.1270    1.1442 N   0  0  0  0  0  0  0  0  0  0  0  0
    2.9011    3.1324    0.3081 C   0  0  0  0  0  0  0  0  0  0  0  0
    1.9258    3.6219    0.1297 H   0  0  0  0  0  0  0  0  0  0  0  0
    3.3156    2.8598   -0.6775 H   0  0  0  0  0  0  0  0  0  0  0  0
    3.5776    3.8568    0.8030 H   0  0  0  0  0  0  0  0  0  0  0  0
    4.1853    1.2981    1.3650 C   0  0  0  0  0  0  0  0  0  0  0  0
    4.8498    0.8224    0.2163 C   0  0  0  0  0  0  0  0  0  0  0  0
    4.3248    0.8254   -0.7494 H   0  0  0  0  0  0  0  0  0  0  0  0
    6.1523    0.3194    0.2996 C   0  0  0  0  0  0  0  0  0  0  0  0
    6.6444   -0.0619   -0.6073 H   0  0  0  0  0  0  0  0  0  0  0  0
    6.8275    0.2982    1.5307 C   0  0  0  0  0  0  0  0  0  0  0  0
    7.8515   -0.0973    1.5969 H   0  0  0  0  0  0  0  0  0  0  0  0
    6.1857    0.7928    2.6727 C   0  0  0  0  0  0  0  0  0  0  0  0
    6.7041    0.7931    3.6428 H   0  0  0  0  0  0  0  0  0  0  0  0
    4.8748    1.2913    2.5885 C   0  0  0  0  0  0  0  0  0  0  0  0
    4.3978    1.6760    3.5004 H   0  0  0  0  0  0  0  0  0  0  0  0
   -0.1519    1.4655    3.5350 C   0  0  0  0  0  0  0  0  0  0  0  0
   -1.2112    1.2332    3.3090 H   0  0  0  0  0  0  0  0  0  0  0  0
   -0.1380    2.1992    4.3651 H   0  0  0  0  0  0  0  0  0  0  0  0
    0.3512    0.5462    3.8830 H   0  0  0  0  0  0  0  0  0  0  0  0
   -0.1701    3.3923    1.9755 C   0  0  0  0  0  0  0  0  0  0  0  0
    0.2985    3.9380    1.1389 H   0  0  0  0  0  0  0  0  0  0  0  0
   -0.1587    4.0548    2.8632 H   0  0  0  0  0  0  0  0  0  0  0  0
   -1.2285    3.1954    1.7169 H   0  0  0  0  0  0  0  0  0  0  0  0
   -0.5953    0.4845    0.5421 C   0  0  0  0  0  0  0  0  0  0  0  0
   -1.0665   -0.7627    1.0428 C   0  0  0  0  0  0  0  0  0  0  0  0
   -2.1432   -1.3746    0.3739 C   0  0  0  0  0  0  0  0  0  0  0  0
   -2.5024   -2.3480    0.7385 H   0  0  0  0  0  0  0  0  0  0  0  0
   -2.7377   -0.7911   -0.7486 C   0  0  0  0  0  0  0  0  0  0  0  0
   -3.5674   -1.2993   -1.2615 H   0  0  0  0  0  0  0  0  0  0  0  0
   -2.2676    0.4363   -1.2198 C   0  0  0  0  0  0  0  0  0  0  0  0
   -2.7268    0.8962   -2.1067 H   0  0  0  0  0  0  0  0  0  0  0  0
   -1.1975    1.1037   -0.5925 C   0  0  0  0  0  0  0  0  0  0  0  0
   -0.4600   -1.5045    2.2130 C   0  0  0  0  0  0  0  0  0  0  0  0
    0.4331   -0.9757    2.5827 H   0  0  0  0  0  0  0  0  0  0  0  0
   -0.0589   -2.4638    1.8238 H   0  0  0  0  0  0  0  0  0  0  0  0
   -1.4488   -1.7923    3.3506 C   0  0  0  0  0  0  0  0  0  0  0  0
   -1.8605   -0.8604    3.7870 H   0  0  0  0  0  0  0  0  0  0  0  0
   -0.9475   -2.3559    4.1626 H   0  0  0  0  0  0  0  0  0  0  0  0
   -2.3097   -2.4007    3.0074 H   0  0  0  0  0  0  0  0  0  0  0  0
   -0.7660    2.4316   -1.1728 C   0  0  0  0  0  0  0  0  0  0  0  0
   -0.4231    2.2490   -2.2117 H   0  0  0  0  0  0  0  0  0  0  0  0
    0.1300    2.8069   -0.6525 H   0  0  0  0  0  0  0  0  0  0  0  0
   -1.8724    3.4955   -1.1714 C   0  0  0  0  0  0  0  0  0  0  0  0
   -1.5003    4.4393   -1.6180 H   0  0  0  0  0  0  0  0  0  0  0  0
   -2.2306    3.7215   -0.1468 H   0  0  0  0  0  0  0  0  0  0  0  0
   -2.7534    3.1738   -1.7622 H   0  0  0  0  0  0  0  0  0  0  0  0
  1  2  1  0  0  0  0
  1  7  1  0  0  0  0
  2  3  1  0  0  0  0
  2  4  1  0  0  0  0
  4  5  1  0  0  0  0
  4  6  1  0  0  0  0
  7  8  1  0  0  0  0
  4  7  1  0  0  0  0
  2  8  1  0  0  0  0
  8  9  1  0  0  0  0
  8 10  1  0  0  0  0
  7 11  1  0  0  0  0
  7 12  1  0  0  0  0
 13 19  1  0  0  0  0
 14 15  1  0  0  0  0
 14 20  1  0  0  0  0
 14 24  1  0  0  0  0
 15 16  1  0  0  0  0
 15 17  1  0  0  0  0
 15 18  1  0  0  0  0
 18 19  1  0  0  0  0
 18 35  1  0  0  0  0
 18 39  1  0  0  0  0
 19 43  1  0  0  0  0
 20 21  1  0  0  0  0
 20 22  1  0  0  0  0
 20 23  1  0  0  0  0
 24 25  1  0  0  0  0
 24 33  2  0  0  0  0
 25 26  1  0  0  0  0
 25 27  2  0  0  0  0
 27 28  1  0  0  0  0
 27 29  1  0  0  0  0
 29 30  1  0  0  0  0
 29 31  2  0  0  0  0
 31 32  1  0  0  0  0
 31 33  1  0  0  0  0
 33 34  1  0  0  0  0
 35 36  1  0  0  0  0
 35 37  1  0  0  0  0
 35 38  1  0  0  0  0
 39 40  1  0  0  0  0
 39 41  1  0  0  0  0
 39 42  1  0  0  0  0
 43 44  1  0  0  0  0
 43 51  2  0  0  0  0
 44 45  2  0  0  0  0
 44 52  1  0  0  0  0
 45 46  1  0  0  0  0
 45 47  1  0  0  0  0
 47 48  1  0  0  0  0
 47 49  2  0  0  0  0
 49 50  1  0  0  0  0
 49 51  1  0  0  0  0
 51 59  1  0  0  0  0
 52 53  1  0  0  0  0
 52 54  1  0  0  0  0
 52 55  1  0  0  0  0
 55 56  1  0  0  0  0
 55 57  1  0  0  0  0
 55 58  1  0  0  0  0
 59 60  1  0  0  0  0
 59 61  1  0  0  0  0
 59 62  1  0  0  0  0
 62 63  1  0  0  0  0
 62 64  1  0  0  0  0
 62 65  1  0  0  0  0
 13 14  1  0  0  0  0
  7 13  1  0  0  0  0
M  END
>  <DFT-ENERGY>
-2080.05838864

$$$$
