DFP-3_A2
  CDK     08132410273D

 57 61  0  0  0  0  0  0  0  0999 V2000
    0.3577    0.2602    0.0784 Ru  0  0  0  0  0  0  0  0  0  0  0  0
    2.1355    0.2602   -1.3108 O   0  0  0  0  0  0  0  0  0  0  0  0
    1.5679    1.1935    1.0825 C   0  0  0  0  0  0  0  0  0  0  0  0
    1.3351    1.4864    2.1052 H   0  0  0  0  0  0  0  0  0  0  0  0
    2.3710   -0.5150   -2.5366 C   0  0  0  0  0  0  0  0  0  0  0  0
    2.7815    0.1844   -3.2952 H   0  0  0  0  0  0  0  0  0  0  0  0
    0.9473   -0.9528   -2.8524 C   0  0  0  0  0  0  0  0  0  0  0  0
    0.8762   -1.4443   -3.8256 H   0  0  0  0  0  0  0  0  0  0  0  0
    0.5660   -1.6553   -2.0834 H   0  0  0  0  0  0  0  0  0  0  0  0
    0.2635   -0.0780   -2.8550 H   0  0  0  0  0  0  0  0  0  0  0  0
    3.3061   -1.6623   -2.2014 C   0  0  0  0  0  0  0  0  0  0  0  0
    2.9861   -2.1453   -1.2558 H   0  0  0  0  0  0  0  0  0  0  0  0
    3.2995   -2.4355   -2.9760 H   0  0  0  0  0  0  0  0  0  0  0  0
    4.3405   -1.3363   -2.0511 H   0  0  0  0  0  0  0  0  0  0  0  0
    3.1277    1.0586   -0.8058 C   0  0  0  0  0  0  0  0  0  0  0  0
    4.2968    1.4073   -1.4588 C   0  0  0  0  0  0  0  0  0  0  0  0
    4.5157    1.0574   -2.4650 H   0  0  0  0  0  0  0  0  0  0  0  0
    5.1980    2.2384   -0.8013 C   0  0  0  0  0  0  0  0  0  0  0  0
    6.1204    2.5263   -1.3103 H   0  0  0  0  0  0  0  0  0  0  0  0
    4.9480    2.7100    0.4840 C   0  0  0  0  0  0  0  0  0  0  0  0
    5.6728    3.3549    0.9781 H   0  0  0  0  0  0  0  0  0  0  0  0
    3.7783    2.3497    1.1256 C   0  0  0  0  0  0  0  0  0  0  0  0
    3.5851    2.7043    2.1369 H   0  0  0  0  0  0  0  0  0  0  0  0
    2.8428    1.5343    0.4862 C   0  0  0  0  0  0  0  0  0  0  0  0
    0.9628   -1.9518    0.6438 Cl  0  0  0  0  0  0  0  0  0  0  0  0
   -0.4728    1.9814   -1.2929 Cl  0  0  0  0  0  0  0  0  0  0  0  0
   -1.2025    0.2554    1.2406 C   0  0  0  0  0  0  0  0  0  0  0  0
   -2.3184   -0.4434    0.7462 N   0  0  0  0  0  0  0  0  0  0  0  0
   -3.5183   -0.4332    1.6446 C   0  0  0  0  0  0  0  0  0  0  0  0
   -3.0243    0.3935    2.8516 C   0  0  0  0  0  0  0  0  0  0  0  0
   -1.6062    0.7533    2.4810 N   0  0  0  0  0  0  0  0  0  0  0  0
   -4.3826    0.0375    1.1337 H   0  0  0  0  0  0  0  0  0  0  0  0
   -3.8025   -1.4671    1.9272 H   0  0  0  0  0  0  0  0  0  0  0  0
   -3.0361   -0.1907    3.7938 H   0  0  0  0  0  0  0  0  0  0  0  0
   -3.6233    1.3141    3.0036 H   0  0  0  0  0  0  0  0  0  0  0  0
   -2.3512   -1.1263   -0.5084 C   0  0  0  0  0  0  0  0  0  0  0  0
   -2.4668   -2.4935   -2.9878 C   0  0  0  0  0  0  0  0  0  0  0  0
   -2.0139   -2.4962   -0.6212 C   0  0  0  0  0  0  0  0  0  0  0  0
   -2.7543   -0.4779   -1.6998 C   0  0  0  0  0  0  0  0  0  0  0  0
   -2.8147   -1.1408   -2.9296 C   0  0  0  0  0  0  0  0  0  0  0  0
   -2.0649   -3.1814   -1.8393 C   0  0  0  0  0  0  0  0  0  0  0  0
   -3.1236   -0.6070   -3.8294 H   0  0  0  0  0  0  0  0  0  0  0  0
   -1.7887   -4.2356   -1.8908 H   0  0  0  0  0  0  0  0  0  0  0  0
   -2.5113   -3.0204   -3.9433 H   0  0  0  0  0  0  0  0  0  0  0  0
   -3.1091    0.7999   -1.6516 F   0  0  0  0  0  0  0  0  0  0  0  0
   -1.6621   -3.1676    0.4676 F   0  0  0  0  0  0  0  0  0  0  0  0
   -0.8641    1.5381    3.4132 C   0  0  0  0  0  0  0  0  0  0  0  0
    0.5467    3.1002    5.3167 C   0  0  0  0  0  0  0  0  0  0  0  0
   -0.1320    0.9506    4.4706 C   0  0  0  0  0  0  0  0  0  0  0  0
   -0.8696    2.9512    3.3748 C   0  0  0  0  0  0  0  0  0  0  0  0
   -0.1747    3.7338    4.3013 C   0  0  0  0  0  0  0  0  0  0  0  0
    0.5717    1.7057    5.4123 C   0  0  0  0  0  0  0  0  0  0  0  0
   -0.1949    4.8228    4.2315 H   0  0  0  0  0  0  0  0  0  0  0  0
    1.1329    1.2145    6.2090 H   0  0  0  0  0  0  0  0  0  0  0  0
    1.0946    3.7012    6.0459 H   0  0  0  0  0  0  0  0  0  0  0  0
   -1.5695    3.5687    2.4299 F   0  0  0  0  0  0  0  0  0  0  0  0
   -0.1148   -0.3728    4.5868 F   0  0  0  0  0  0  0  0  0  0  0  0
  1  2  1  0  0  0  0
  1  3  2  0  0  0  0
  3  4  1  0  0  0  0
  2  5  1  0  0  0  0
  5  6  1  0  0  0  0
  5  7  1  0  0  0  0
  7  8  1  0  0  0  0
  7  9  1  0  0  0  0
  7 10  1  0  0  0  0
  5 11  1  0  0  0  0
 11 12  1  0  0  0  0
 11 13  1  0  0  0  0
 11 14  1  0  0  0  0
  2 15  1  0  0  0  0
 15 24  1  0  0  0  0
 15 16  2  0  0  0  0
 16 17  1  0  0  0  0
 16 18  1  0  0  0  0
 18 19  1  0  0  0  0
 18 20  2  0  0  0  0
 20 21  1  0  0  0  0
 20 22  1  0  0  0  0
 22 24  2  0  0  0  0
 22 23  1  0  0  0  0
  3 24  1  0  0  0  0
  1 25  1  0  0  0  0
  1 26  1  0  0  0  0
 27 28  1  0  0  0  0
 27 31  1  0  0  0  0
 28 29  1  0  0  0  0
 29 32  1  0  0  0  0
 29 33  1  0  0  0  0
 29 30  1  0  0  0  0
 30 34  1  0  0  0  0
 30 35  1  0  0  0  0
 30 31  1  0  0  0  0
  1 27  1  0  0  0  0
 36 39  2  0  0  0  0
 36 38  1  0  0  0  0
 37 40  2  0  0  0  0
 37 41  1  0  0  0  0
 37 44  1  0  0  0  0
 38 41  2  0  0  0  0
 38 46  1  0  0  0  0
 39 40  1  0  0  0  0
 39 45  1  0  0  0  0
 40 42  1  0  0  0  0
 41 43  1  0  0  0  0
 28 36  1  0  0  0  0
 47 50  2  0  0  0  0
 47 49  1  0  0  0  0
 48 51  2  0  0  0  0
 48 52  1  0  0  0  0
 48 55  1  0  0  0  0
 49 52  2  0  0  0  0
 49 57  1  0  0  0  0
 50 51  1  0  0  0  0
 50 56  1  0  0  0  0
 51 53  1  0  0  0  0
 52 54  1  0  0  0  0
 31 47  1  0  0  0  0
M  END
> <FrozenCore-PM6_ENERGY>
-485.753

> <RMSD_CONF_CG-CS>
3.356229

> <RMSD_CONF_GO-CS>
0.000000

> <UID>


> <DESCRIPTOR_DEFINITION_1>
desc1=( echo "1 * ( e( $hartree_to_kcalmol * ( ( $freeEnergyZ - $freeEnergyD ) - ( $freeEnergyX + 2*$G_Ethene - $freeEnergyD - 2*$G_Propene ) - $DDG_reference_HGII ) / $kT ) ) " | bc -l )

> <DESCRIPTOR_DEFINITION_2>
desc1=( echo "1 * ( e( $hartree_to_kcalmol * ( ( $freeEnergyZ - $freeEnergyD ) - ( $freeEnergyX + 2*$G_Ethene - $freeEnergyD - 2*$G_Propene ) - $DDG_reference_HGII ) / $kT ) ) " | bc -l )

> <DESCRIPTOR_DEFINITION_3>
desc1=( echo "1 * ( e( $hartree_to_kcalmol * ( ( $freeEnergyZ - $freeEnergyD ) - ( $freeEnergyX + 2*$G_Ethene - $freeEnergyD - 2*$G_Propene ) - $DDG_reference_HGII ) / $kT ) ) " | bc -l )

> <WEIGHT_DEFINITION_1>
w1=$( echo "1 / ( 1 + e( $hartree_to_kcalmol * ( ( ( $freeEnergyX + 2*$G_Ethene - $freeEnergyD - 2*$G_Propene ) ) - ( $DG_referenceProductionBarrier + $magnitude4 ) ) / $kT ) )" | bc -l )

> <WEIGHT_DEFINITION_2>
w1=$( echo "1 / ( 1 + e( $hartree_to_kcalmol * ( ( ( $freeEnergyX + 2*$G_Ethene - $freeEnergyD - 2*$G_Propene ) ) - ( $DG_referenceProductionBarrier + $magnitude4 ) ) / $kT ) )" | bc -l )

> <WEIGHT_DEFINITION_3>
w1=$( echo "1 / ( 1 + e( $hartree_to_kcalmol * ( ( ( $freeEnergyX + 2*$G_Ethene - $freeEnergyD - 2*$G_Propene ) ) - ( $DG_referenceProductionBarrier + $magnitude4 ) ) / $kT ) )" | bc -l )

> <WEIGHT_DEFINITION_4>
w1=$( echo "1 / ( 1 + e( $hartree_to_kcalmol * ( ( ( $freeEnergyX + 2*$G_Ethene - $freeEnergyD - 2*$G_Propene ) ) - ( $DG_referenceProductionBarrier + $magnitude4 ) ) / $kT ) )" | bc -l )

> <CALCULATION_OF_OVERALL_FITNESS>
fitness=$( echo "( $desc1 + $desc2 + $desc3 ) * ( $w1 * $w2 * $w3 * $w4 )" | bc -l )

> <freeEnergyA>
-2563.16312744

> <freeEnergyF>
-2563.13933868

> <freeEnergyE>
-2563.16312744

> <freeEnergyC>
-2217.90049447

> <freeEnergyL>
-1085.30459747

> <freeEnergyX>
-2296.43255147

> <freeEnergyZ>
-2217.89029169

> <freeEnergyD>
-2217.92426704

> <G_Propene>
-117.738020895

> <G_Ethene>
-78.4716324751

> <G_HoveydaProd>
-502.204109499

> <G_SIMes>
-924.27249048

> <G_HG_RuCl2_SIMes>
-2402.13728523

> <DG_referenceProductionBarrier>
0.01468968

> <DG_referencePrecursorStabilityHII>
-0.0052201621

> <DG_referencePrecursorStabilityHI>
0.0117775312

> <DDG_referencePrecursorStability>
.0169976933

> <DG_referenceSynt>
0.0226072217

> <hartree_to_kcalmol>
627.49467516

> <boltzmann_constant>
0.0000000000000000000000138066

> <avogadro_number>
602214000000000000000000

> <jmol_to_kcalmol>
0.00023901

> <temp>
313.15

> <kT>
.6223089948281258706000000000

> <magnitude1>
1.43290809

> <magnitude2>
2.86581618

> <magnitude3>
4.29872427

> <magnitude4>
5.73163236

> <DFT_IDENTIFIER>
1723597025612

> <DFT_MACHINE>
158.39.114.73

> <XTB_IDENTIFIER>
NREC

> <XTB_MACHINE>
NREC

> <DESCRIPTOR_1>
.00000261411853700509

> <DESCRIPTOR_2>
5.950494480360705432

> <DESCRIPTOR_3>
0.0000000001

> <WEIGHT_1>
.99906195597004976001

> <WEIGHT_2>
.99999577681106077786

> <WEIGHT_3>
.99999999302677425896

> <WEIGHT_4>
.99999999617557292906

> <FITNESS>
5.94489009561317906796

$$$$
