
  CDK     08142402133D

 43 46  0  0  0  0  0  0  0  0999 V2000
    1.1261   -0.6642   -0.1181 Ru  0  0  0  0  0  0  0  0  0  0  0  0
    2.1424   -1.4742   -1.5821 C   0  0  0  0  0  0  0  0  0  0  0  0
    1.6699   -2.3635   -2.0365 H   0  0  0  0  0  0  0  0  0  0  0  0
    3.0400   -1.8219   -0.3263 C   0  0  0  0  0  0  0  0  0  0  0  0
    3.0826   -2.9248   -0.2717 H   0  0  0  0  0  0  0  0  0  0  0  0
    2.5203   -1.3308    1.0847 C   0  0  0  0  0  0  0  0  0  0  0  0
    3.1560   -0.5450    1.5309 H   0  0  0  0  0  0  0  0  0  0  0  0
    2.2190   -2.1595    1.7500 H   0  0  0  0  0  0  0  0  0  0  0  0
    4.0142   -1.3276   -0.4926 H   0  0  0  0  0  0  0  0  0  0  0  0
    2.6231   -0.7613   -2.2758 H   0  0  0  0  0  0  0  0  0  0  0  0
   -0.0563   -2.7152    0.2007 Cl  0  0  0  0  0  0  0  0  0  0  0  0
    2.3446    1.3607   -0.4401 Cl  0  0  0  0  0  0  0  0  0  0  0  0
   -0.5645    0.3370    0.0597 C   0  0  0  0  0  0  0  0  0  0  0  0
   -1.2361    0.9282   -0.9572 N   0  0  0  0  0  0  0  0  0  0  0  0
   -2.3980    1.7057   -0.4732 C   0  0  0  0  0  0  0  0  0  0  0  0
   -2.5492    1.1995    0.9740 C   0  0  0  0  0  0  0  0  0  0  0  0
   -1.2477    0.5370    1.2119 N   0  0  0  0  0  0  0  0  0  0  0  0
   -2.1632    2.7884   -0.5205 H   0  0  0  0  0  0  0  0  0  0  0  0
   -3.2890    1.4983   -1.0953 H   0  0  0  0  0  0  0  0  0  0  0  0
   -3.3659    0.4571    1.0792 H   0  0  0  0  0  0  0  0  0  0  0  0
   -2.7052    2.0186    1.7010 H   0  0  0  0  0  0  0  0  0  0  0  0
   -0.6667    1.0828   -2.2468 C   0  0  0  0  0  0  0  0  0  0  0  0
    0.5545    1.3633   -4.7658 C   0  0  0  0  0  0  0  0  0  0  0  0
   -0.6082    0.0053   -3.1502 C   0  0  0  0  0  0  0  0  0  0  0  0
   -0.1014    2.3056   -2.6526 C   0  0  0  0  0  0  0  0  0  0  0  0
    0.5016    2.4654   -3.8994 C   0  0  0  0  0  0  0  0  0  0  0  0
    0.0058    0.1262   -4.3998 C   0  0  0  0  0  0  0  0  0  0  0  0
    0.9411    3.4360   -4.1606 H   0  0  0  0  0  0  0  0  0  0  0  0
    0.0383   -0.7466   -5.0640 H   0  0  0  0  0  0  0  0  0  0  0  0
    1.0391    1.4704   -5.7461 H   0  0  0  0  0  0  0  0  0  0  0  0
   -0.1551    3.3432   -1.7905 F   0  0  0  0  0  0  0  0  0  0  0  0
   -1.1403   -1.1752   -2.7781 F   0  0  0  0  0  0  0  0  0  0  0  0
   -0.9130   -0.1350    2.4146 C   0  0  0  0  0  0  0  0  0  0  0  0
   -0.1887   -1.5272    4.7505 C   0  0  0  0  0  0  0  0  0  0  0  0
   -1.6524   -1.2450    2.8626 C   0  0  0  0  0  0  0  0  0  0  0  0
    0.1986    0.2602    3.1819 C   0  0  0  0  0  0  0  0  0  0  0  0
    0.5780   -0.4288    4.3370 C   0  0  0  0  0  0  0  0  0  0  0  0
   -1.3133   -1.9420    4.0215 C   0  0  0  0  0  0  0  0  0  0  0  0
    1.4608   -0.0898    4.8935 H   0  0  0  0  0  0  0  0  0  0  0  0
   -1.9152   -2.8096    4.3187 H   0  0  0  0  0  0  0  0  0  0  0  0
    0.0987   -2.0759    5.6579 H   0  0  0  0  0  0  0  0  0  0  0  0
    0.9222    1.3183    2.7665 F   0  0  0  0  0  0  0  0  0  0  0  0
   -2.7197   -1.6310    2.1312 F   0  0  0  0  0  0  0  0  0  0  0  0
  2  4  1  0  0  0  0
  2  1  1  0  0  0  0
  2  3  1  0  0  0  0
  4  6  1  0  0  0  0
  4  5  1  0  0  0  0
  6  1  1  0  0  0  0
  6  8  1  0  0  0  0
  7  6  1  0  0  0  0
  9  4  1  0  0  0  0
 10  2  1  0  0  0  0
  1 11  1  0  0  0  0
  1 12  1  0  0  0  0
 13 14  1  0  0  0  0
 13 17  1  0  0  0  0
 14 15  1  0  0  0  0
 15 18  1  0  0  0  0
 15 19  1  0  0  0  0
 15 16  1  0  0  0  0
 16 20  1  0  0  0  0
 16 21  1  0  0  0  0
 16 17  1  0  0  0  0
 22 25  2  0  0  0  0
 22 24  1  0  0  0  0
 23 26  2  0  0  0  0
 23 27  1  0  0  0  0
 23 30  1  0  0  0  0
 24 27  2  0  0  0  0
 24 32  1  0  0  0  0
 25 26  1  0  0  0  0
 25 31  1  0  0  0  0
 26 28  1  0  0  0  0
 27 29  1  0  0  0  0
 14 22  1  0  0  0  0
 33 36  2  0  0  0  0
 33 35  1  0  0  0  0
 34 37  2  0  0  0  0
 34 38  1  0  0  0  0
 34 41  1  0  0  0  0
 35 38  2  0  0  0  0
 35 43  1  0  0  0  0
 36 37  1  0  0  0  0
 36 42  1  0  0  0  0
 37 39  1  0  0  0  0
 38 40  1  0  0  0  0
 17 33  1  0  0  0  0
  1 13  1  0  0  0  0
M  END
>  <DFT-ENERGY>
-2217.9242671

$$$$
