
  CDK     08132417483D

 49 52  0  0  0  0  0  0  0  0999 V2000
   -0.4129   -2.1907   -2.8099 C   0  0  0  0  0  0  0  0  0  0  0  0
    0.6451   -2.5042   -2.7691 H   0  0  0  0  0  0  0  0  0  0  0  0
   -0.8873   -2.5822   -3.7379 H   0  0  0  0  0  0  0  0  0  0  0  0
   -0.9442   -2.6630   -1.9598 H   0  0  0  0  0  0  0  0  0  0  0  0
   -0.5585   -0.6878   -2.7901 C   0  0  0  0  0  0  0  0  0  0  0  0
   -1.5930   -0.3011   -2.8572 H   0  0  0  0  0  0  0  0  0  0  0  0
    0.4415    0.2029   -3.2643 C   0  0  0  0  0  0  0  0  0  0  0  0
    1.4396   -0.2317   -3.4497 H   0  0  0  0  0  0  0  0  0  0  0  0
    0.0496    1.4453   -4.0300 C   0  0  0  0  0  0  0  0  0  0  0  0
    0.8806    2.1693   -4.1261 H   0  0  0  0  0  0  0  0  0  0  0  0
   -0.2550    1.1454   -5.0560 H   0  0  0  0  0  0  0  0  0  0  0  0
   -0.8151    1.9401   -3.5443 H   0  0  0  0  0  0  0  0  0  0  0  0
    1.2417    1.4242   -1.4604 C   0  0  0  0  0  0  0  0  0  0  0  0
    0.8387    2.4412   -1.6560 H   0  0  0  0  0  0  0  0  0  0  0  0
    2.3329    1.2568   -1.5950 H   0  0  0  0  0  0  0  0  0  0  0  0
    0.1615    0.0671   -0.8740 Ru  0  0  0  0  0  0  0  0  0  0  0  0
   -1.7460    1.5257   -0.9461 Cl  0  0  0  0  0  0  0  0  0  0  0  0
    2.0564   -1.4042   -0.8183 Cl  0  0  0  0  0  0  0  0  0  0  0  0
    0.0276    0.0330    1.0975 C   0  0  0  0  0  0  0  0  0  0  0  0
    0.5588    0.9018    2.0017 N   0  0  0  0  0  0  0  0  0  0  0  0
    0.0647    0.6368    3.3714 C   0  0  0  0  0  0  0  0  0  0  0  0
   -0.4616   -0.8007    3.2468 C   0  0  0  0  0  0  0  0  0  0  0  0
   -0.6679   -0.9115    1.7887 N   0  0  0  0  0  0  0  0  0  0  0  0
    0.8856    0.7333    4.1060 H   0  0  0  0  0  0  0  0  0  0  0  0
   -0.7415    1.3576    3.6225 H   0  0  0  0  0  0  0  0  0  0  0  0
   -1.4112   -0.9613    3.7907 H   0  0  0  0  0  0  0  0  0  0  0  0
    0.2853   -1.5528    3.5781 H   0  0  0  0  0  0  0  0  0  0  0  0
    1.0946    2.1592    1.6296 C   0  0  0  0  0  0  0  0  0  0  0  0
    2.1361    4.6371    0.7994 C   0  0  0  0  0  0  0  0  0  0  0  0
    0.2833    3.3068    1.5656 C   0  0  0  0  0  0  0  0  0  0  0  0
    2.4523    2.2975    1.2872 C   0  0  0  0  0  0  0  0  0  0  0  0
    2.9817    3.5199    0.8619 C   0  0  0  0  0  0  0  0  0  0  0  0
    0.7818    4.5442    1.1539 C   0  0  0  0  0  0  0  0  0  0  0  0
    4.0435    3.5760    0.5908 H   0  0  0  0  0  0  0  0  0  0  0  0
    0.1045    5.4061    1.1079 H   0  0  0  0  0  0  0  0  0  0  0  0
    2.5414    5.6026    0.4661 H   0  0  0  0  0  0  0  0  0  0  0  0
    3.2426    1.2113    1.3501 F   0  0  0  0  0  0  0  0  0  0  0  0
   -1.0120    3.1850    1.9190 F   0  0  0  0  0  0  0  0  0  0  0  0
   -1.1280   -2.0945    1.1559 C   0  0  0  0  0  0  0  0  0  0  0  0
   -2.0342   -4.4396   -0.1070 C   0  0  0  0  0  0  0  0  0  0  0  0
   -2.4149   -2.1612    0.5854 C   0  0  0  0  0  0  0  0  0  0  0  0
   -0.3242   -3.2506    1.0977 C   0  0  0  0  0  0  0  0  0  0  0  0
   -0.7544   -4.4198    0.4686 C   0  0  0  0  0  0  0  0  0  0  0  0
   -2.8732   -3.3169   -0.0561 C   0  0  0  0  0  0  0  0  0  0  0  0
   -0.0843   -5.2877    0.4349 H   0  0  0  0  0  0  0  0  0  0  0  0
   -3.8782   -3.3190   -0.4965 H   0  0  0  0  0  0  0  0  0  0  0  0
   -2.3844   -5.3515   -0.6101 H   0  0  0  0  0  0  0  0  0  0  0  0
    0.8843   -3.2064    1.6882 F   0  0  0  0  0  0  0  0  0  0  0  0
   -3.2095   -1.0814    0.6629 F   0  0  0  0  0  0  0  0  0  0  0  0
  1  2  1  0  0  0  0
  1  5  1  0  0  0  0
  3  1  1  0  0  0  0
  4  1  1  0  0  0  0
  5  6  1  0  0  0  0
  5 16  1  0  0  0  0
  5  7  1  0  0  0  0
  7  9  1  0  0  0  0
  7  8  1  0  0  0  0
  9 10  1  0  0  0  0
 11  9  1  0  0  0  0
 12  9  1  0  0  0  0
 13 14  1  0  0  0  0
 13 15  1  0  0  0  0
 13  7  1  0  0  0  0
 16 13  1  0  0  0  0
 16 17  1  0  0  0  0
 16 18  1  0  0  0  0
 19 20  1  0  0  0  0
 19 23  1  0  0  0  0
 20 21  1  0  0  0  0
 21 24  1  0  0  0  0
 21 25  1  0  0  0  0
 21 22  1  0  0  0  0
 22 26  1  0  0  0  0
 22 27  1  0  0  0  0
 22 23  1  0  0  0  0
 28 31  2  0  0  0  0
 28 30  1  0  0  0  0
 29 32  2  0  0  0  0
 29 33  1  0  0  0  0
 29 36  1  0  0  0  0
 30 33  2  0  0  0  0
 30 38  1  0  0  0  0
 31 32  1  0  0  0  0
 31 37  1  0  0  0  0
 32 34  1  0  0  0  0
 33 35  1  0  0  0  0
 20 28  1  0  0  0  0
 39 42  2  0  0  0  0
 39 41  1  0  0  0  0
 40 43  2  0  0  0  0
 40 44  1  0  0  0  0
 40 47  1  0  0  0  0
 41 44  2  0  0  0  0
 41 49  1  0  0  0  0
 42 43  1  0  0  0  0
 42 48  1  0  0  0  0
 43 45  1  0  0  0  0
 44 46  1  0  0  0  0
 23 39  1  0  0  0  0
 16 19  1  0  0  0  0
M  END
>  <DFT-ENERGY>
-2296.43255168

$$$$
