
  CDK     08132413173D

 43 43  0  0  0  0  0  0  0  0999 V2000
    1.6694    0.8611   -0.1247 Ru  0  0  0  0  0  0  0  0  0  0  0  0
    2.8217    1.3114   -1.6377 C   0  0  0  0  0  0  0  0  0  0  0  0
    2.4129    2.0444   -2.3574 H   0  0  0  0  0  0  0  0  0  0  0  0
    3.5652    2.0019   -0.4222 C   0  0  0  0  0  0  0  0  0  0  0  0
    3.5849    3.0831   -0.6522 H   0  0  0  0  0  0  0  0  0  0  0  0
    2.9065    1.8696    1.0072 C   0  0  0  0  0  0  0  0  0  0  0  0
    3.5130    1.2664    1.7074 H   0  0  0  0  0  0  0  0  0  0  0  0
    2.5252    2.8324    1.3939 H   0  0  0  0  0  0  0  0  0  0  0  0
    4.5566    1.5174   -0.3530 H   0  0  0  0  0  0  0  0  0  0  0  0
    3.3962    0.4714   -2.0694 H   0  0  0  0  0  0  0  0  0  0  0  0
    0.4306    2.8808   -0.5068 Cl  0  0  0  0  0  0  0  0  0  0  0  0
    2.9961   -1.0834    0.2487 Cl  0  0  0  0  0  0  0  0  0  0  0  0
   -0.4062   -0.2373    0.1660 P   0  0  0  0  0  0  0  0  0  0  0  0
   -1.4978    0.1568   -1.3079 C   0  0  0  0  0  0  0  0  0  0  0  0
   -1.7385    1.2230   -1.1162 H   0  0  0  0  0  0  0  0  0  0  0  0
   -0.7047    0.1054   -2.6212 C   0  0  0  0  0  0  0  0  0  0  0  0
    0.1562    0.8010   -2.5849 H   0  0  0  0  0  0  0  0  0  0  0  0
   -0.3296   -0.9101   -2.8534 H   0  0  0  0  0  0  0  0  0  0  0  0
    0.1104   -2.8617   -0.7649 C   0  0  0  0  0  0  0  0  0  0  0  0
    1.1748   -2.5883   -0.9072 H   0  0  0  0  0  0  0  0  0  0  0  0
    0.0588   -3.9518   -0.5631 H   0  0  0  0  0  0  0  0  0  0  0  0
   -1.2419    0.4437    1.7155 C   0  0  0  0  0  0  0  0  0  0  0  0
   -1.7899   -0.4328    2.1260 H   0  0  0  0  0  0  0  0  0  0  0  0
   -0.4850   -2.0967    0.4229 C   0  0  0  0  0  0  0  0  0  0  0  0
    0.1647   -2.5166    1.7478 C   0  0  0  0  0  0  0  0  0  0  0  0
   -2.7824   -0.6751   -1.3554 C   0  0  0  0  0  0  0  0  0  0  0  0
   -2.5785   -1.7377   -1.5958 H   0  0  0  0  0  0  0  0  0  0  0  0
   -3.3467   -0.6429   -0.4020 H   0  0  0  0  0  0  0  0  0  0  0  0
   -2.2316    1.5801    1.4470 C   0  0  0  0  0  0  0  0  0  0  0  0
   -2.6445    1.9320    2.4154 H   0  0  0  0  0  0  0  0  0  0  0  0
   -1.7219    2.4341    0.9583 H   0  0  0  0  0  0  0  0  0  0  0  0
   -0.1604    0.8820    2.7174 C   0  0  0  0  0  0  0  0  0  0  0  0
    0.6175    0.1093    2.8739 H   0  0  0  0  0  0  0  0  0  0  0  0
   -0.6247    1.1076    3.6994 H   0  0  0  0  0  0  0  0  0  0  0  0
    0.3356    1.8039    2.3532 H   0  0  0  0  0  0  0  0  0  0  0  0
   -1.3586    0.4238   -3.4591 H   0  0  0  0  0  0  0  0  0  0  0  0
   -3.0854    1.2642    0.8172 H   0  0  0  0  0  0  0  0  0  0  0  0
   -1.5792   -2.2980    0.4807 H   0  0  0  0  0  0  0  0  0  0  0  0
   -3.4486   -0.2809   -2.1506 H   0  0  0  0  0  0  0  0  0  0  0  0
    0.0718   -3.6164    1.8631 H   0  0  0  0  0  0  0  0  0  0  0  0
   -0.3222   -2.0520    2.6273 H   0  0  0  0  0  0  0  0  0  0  0  0
    1.2420   -2.2584    1.7511 H   0  0  0  0  0  0  0  0  0  0  0  0
   -0.4390   -2.6724   -1.7069 H   0  0  0  0  0  0  0  0  0  0  0  0
  2  4  1  0  0  0  0
  2  1  1  0  0  0  0
  2  3  1  0  0  0  0
  4  6  1  0  0  0  0
  4  5  1  0  0  0  0
  6  1  1  0  0  0  0
  6  8  1  0  0  0  0
  7  6  1  0  0  0  0
  9  4  1  0  0  0  0
 10  2  1  0  0  0  0
  1 11  1  0  0  0  0
  1 12  1  0  0  0  0
 13 14  1  0  0  0  0
 13 22  1  0  0  0  0
 13 24  1  0  0  0  0
 14 15  1  0  0  0  0
 14 16  1  0  0  0  0
 14 26  1  0  0  0  0
 16 17  1  0  0  0  0
 16 18  1  0  0  0  0
 19 20  1  0  0  0  0
 19 21  1  0  0  0  0
 19 24  1  0  0  0  0
 22 23  1  0  0  0  0
 22 29  1  0  0  0  0
 22 32  1  0  0  0  0
 24 25  1  0  0  0  0
 26 27  1  0  0  0  0
 26 28  1  0  0  0  0
 29 30  1  0  0  0  0
 29 31  1  0  0  0  0
 32 33  1  0  0  0  0
 32 34  1  0  0  0  0
 35 32  1  0  0  0  0
 36 16  1  0  0  0  0
 37 29  1  0  0  0  0
 38 24  1  0  0  0  0
 39 26  1  0  0  0  0
 40 25  1  0  0  0  0
 41 25  1  0  0  0  0
 42 25  1  0  0  0  0
 43 19  1  0  0  0  0
  1 13  1  0  0  0  0
M  END
>  <DFT-ENERGY>
-1828.91054203

$$$$
