
  CDK     08132404393D

 49 49  0  0  0  0  0  0  0  0999 V2000
   -0.5655    3.3024   -2.1545 C   0  0  0  0  0  0  0  0  0  0  0  0
    0.4675    3.2247   -2.5367 H   0  0  0  0  0  0  0  0  0  0  0  0
   -1.0318    4.2447   -2.5192 H   0  0  0  0  0  0  0  0  0  0  0  0
   -1.1572    2.4728   -2.5948 H   0  0  0  0  0  0  0  0  0  0  0  0
   -0.6180    3.2917   -0.6439 C   0  0  0  0  0  0  0  0  0  0  0  0
   -1.6203    3.4213   -0.1944 H   0  0  0  0  0  0  0  0  0  0  0  0
    0.4678    3.6966    0.1756 C   0  0  0  0  0  0  0  0  0  0  0  0
    1.4455    3.8255   -0.3211 H   0  0  0  0  0  0  0  0  0  0  0  0
    0.2071    4.4790    1.4422 C   0  0  0  0  0  0  0  0  0  0  0  0
    1.0813    4.5088    2.1193 H   0  0  0  0  0  0  0  0  0  0  0  0
   -0.0307    5.5268    1.1576 H   0  0  0  0  0  0  0  0  0  0  0  0
   -0.6657    4.0649    1.9841 H   0  0  0  0  0  0  0  0  0  0  0  0
    1.2091    1.8590    1.3837 C   0  0  0  0  0  0  0  0  0  0  0  0
    0.8280    2.0720    2.4067 H   0  0  0  0  0  0  0  0  0  0  0  0
    2.3068    1.9511    1.2174 H   0  0  0  0  0  0  0  0  0  0  0  0
    0.0823    1.3471    0.0419 Ru  0  0  0  0  0  0  0  0  0  0  0  0
   -1.8164    1.4724    1.5162 Cl  0  0  0  0  0  0  0  0  0  0  0  0
    1.9316    1.2793   -1.4948 Cl  0  0  0  0  0  0  0  0  0  0  0  0
   -0.0509   -1.0061   -0.0618 P   0  0  0  0  0  0  0  0  0  0  0  0
    1.5640   -1.8748   -0.4804 C   0  0  0  0  0  0  0  0  0  0  0  0
    1.8490   -1.3588   -1.4203 H   0  0  0  0  0  0  0  0  0  0  0  0
    2.6638   -1.5840    0.5446 C   0  0  0  0  0  0  0  0  0  0  0  0
    2.7669   -0.4970    0.7222 H   0  0  0  0  0  0  0  0  0  0  0  0
    2.4762   -2.0950    1.5106 H   0  0  0  0  0  0  0  0  0  0  0  0
   -0.1562   -1.3667    2.7238 C   0  0  0  0  0  0  0  0  0  0  0  0
   -0.5799   -0.3573    2.8920 H   0  0  0  0  0  0  0  0  0  0  0  0
   -0.4375   -2.0168    3.5783 H   0  0  0  0  0  0  0  0  0  0  0  0
   -1.1811   -1.3680   -1.5284 C   0  0  0  0  0  0  0  0  0  0  0  0
   -1.5486   -2.4077   -1.3850 H   0  0  0  0  0  0  0  0  0  0  0  0
   -0.7195   -1.9569    1.4230 C   0  0  0  0  0  0  0  0  0  0  0  0
   -2.2475   -2.0564    1.4819 C   0  0  0  0  0  0  0  0  0  0  0  0
    1.4012   -3.3783   -0.7284 C   0  0  0  0  0  0  0  0  0  0  0  0
    1.1900   -3.9312    0.2099 H   0  0  0  0  0  0  0  0  0  0  0  0
    0.5946   -3.6149   -1.4498 H   0  0  0  0  0  0  0  0  0  0  0  0
   -0.4292   -1.2630   -2.8624 C   0  0  0  0  0  0  0  0  0  0  0  0
   -1.1557   -1.3434   -3.6973 H   0  0  0  0  0  0  0  0  0  0  0  0
    0.0968   -0.2898   -2.9508 H   0  0  0  0  0  0  0  0  0  0  0  0
   -2.3738   -0.3993   -1.5101 C   0  0  0  0  0  0  0  0  0  0  0  0
   -2.9014   -0.3677   -0.5409 H   0  0  0  0  0  0  0  0  0  0  0  0
   -3.0955   -0.6766   -2.3060 H   0  0  0  0  0  0  0  0  0  0  0  0
   -2.0368    0.6383   -1.7219 H   0  0  0  0  0  0  0  0  0  0  0  0
    3.6356   -1.9553    0.1586 H   0  0  0  0  0  0  0  0  0  0  0  0
    0.3215   -2.0642   -2.9969 H   0  0  0  0  0  0  0  0  0  0  0  0
   -0.3054   -2.9788    1.2766 H   0  0  0  0  0  0  0  0  0  0  0  0
    2.3463   -3.7906   -1.1391 H   0  0  0  0  0  0  0  0  0  0  0  0
   -2.5338   -2.6819    2.3533 H   0  0  0  0  0  0  0  0  0  0  0  0
   -2.6810   -2.5307    0.5799 H   0  0  0  0  0  0  0  0  0  0  0  0
   -2.6975   -1.0540    1.6172 H   0  0  0  0  0  0  0  0  0  0  0  0
    0.9469   -1.2830    2.7102 H   0  0  0  0  0  0  0  0  0  0  0  0
  1  2  1  0  0  0  0
  1  5  1  0  0  0  0
  3  1  1  0  0  0  0
  4  1  1  0  0  0  0
  5  6  1  0  0  0  0
  5 16  1  0  0  0  0
  5  7  1  0  0  0  0
  7  9  1  0  0  0  0
  7  8  1  0  0  0  0
  9 10  1  0  0  0  0
 11  9  1  0  0  0  0
 12  9  1  0  0  0  0
 13 14  1  0  0  0  0
 13 15  1  0  0  0  0
 13  7  1  0  0  0  0
 16 13  1  0  0  0  0
 16 17  1  0  0  0  0
 16 18  1  0  0  0  0
 19 20  1  0  0  0  0
 19 28  1  0  0  0  0
 19 30  1  0  0  0  0
 20 21  1  0  0  0  0
 20 22  1  0  0  0  0
 20 32  1  0  0  0  0
 22 23  1  0  0  0  0
 22 24  1  0  0  0  0
 25 26  1  0  0  0  0
 25 27  1  0  0  0  0
 25 30  1  0  0  0  0
 28 29  1  0  0  0  0
 28 35  1  0  0  0  0
 28 38  1  0  0  0  0
 30 31  1  0  0  0  0
 32 33  1  0  0  0  0
 32 34  1  0  0  0  0
 35 36  1  0  0  0  0
 35 37  1  0  0  0  0
 38 39  1  0  0  0  0
 38 40  1  0  0  0  0
 41 38  1  0  0  0  0
 42 22  1  0  0  0  0
 43 35  1  0  0  0  0
 44 30  1  0  0  0  0
 45 32  1  0  0  0  0
 46 31  1  0  0  0  0
 47 31  1  0  0  0  0
 48 31  1  0  0  0  0
 49 25  1  0  0  0  0
 16 19  1  0  0  0  0
M  END
>  <DFT-ENERGY>
-1907.42106089

$$$$
