
  CDK     08132411093D

 43 44  0  0  0  0  0  0  0  0999 V2000
    0.9194   -0.0812   -3.1845 H   0  0  0  0  0  0  0  0  0  0  0  0
    2.1497   -0.0732   -3.2029 C   0  0  0  0  0  0  0  0  0  0  0  0
    2.0243    0.4299   -4.1930 H   0  0  0  0  0  0  0  0  0  0  0  0
    2.3804    0.6748   -1.9453 C   0  0  0  0  0  0  0  0  0  0  0  0
    3.3329    0.4841   -1.4244 H   0  0  0  0  0  0  0  0  0  0  0  0
    2.0227    1.7163   -1.9002 H   0  0  0  0  0  0  0  0  0  0  0  0
    0.9833   -0.8485   -1.5866 Ru  0  0  0  0  0  0  0  0  0  0  0  0
    2.4925   -1.4799   -3.0819 C   0  0  0  0  0  0  0  0  0  0  0  0
    3.3868   -1.7675   -2.5129 H   0  0  0  0  0  0  0  0  0  0  0  0
    2.1564   -2.1721   -3.8705 H   0  0  0  0  0  0  0  0  0  0  0  0
    2.4716   -1.7386    0.0062 Cl  0  0  0  0  0  0  0  0  0  0  0  0
   -1.0373   -0.9814   -2.8225 Cl  0  0  0  0  0  0  0  0  0  0  0  0
   -0.2731   -0.1683    0.3331 P   0  0  0  0  0  0  0  0  0  0  0  0
    0.7471    0.5447    1.7547 C   0  0  0  0  0  0  0  0  0  0  0  0
    1.3794   -0.3244    2.0288 H   0  0  0  0  0  0  0  0  0  0  0  0
    1.6852    1.6687    1.3106 C   0  0  0  0  0  0  0  0  0  0  0  0
    2.3461    1.3357    0.4918 H   0  0  0  0  0  0  0  0  0  0  0  0
    1.1288    2.5690    0.9786 H   0  0  0  0  0  0  0  0  0  0  0  0
   -1.0492    2.1698   -1.0505 C   0  0  0  0  0  0  0  0  0  0  0  0
   -1.0044    1.6755   -2.0407 H   0  0  0  0  0  0  0  0  0  0  0  0
   -1.7397    3.0361   -1.1242 H   0  0  0  0  0  0  0  0  0  0  0  0
   -1.2193   -1.5758    1.1827 C   0  0  0  0  0  0  0  0  0  0  0  0
   -2.0323   -1.0806    1.7586 H   0  0  0  0  0  0  0  0  0  0  0  0
   -1.5614    1.1883    0.0110 C   0  0  0  0  0  0  0  0  0  0  0  0
   -2.9646    0.6859   -0.3427 C   0  0  0  0  0  0  0  0  0  0  0  0
   -0.0939    0.9724    2.9640 C   0  0  0  0  0  0  0  0  0  0  0  0
   -0.6581    1.9063    2.7627 H   0  0  0  0  0  0  0  0  0  0  0  0
   -0.8197    0.2022    3.2887 H   0  0  0  0  0  0  0  0  0  0  0  0
   -0.3410   -2.3860    2.1466 C   0  0  0  0  0  0  0  0  0  0  0  0
   -0.9355   -3.2326    2.5487 H   0  0  0  0  0  0  0  0  0  0  0  0
    0.5412   -2.8043    1.6237 H   0  0  0  0  0  0  0  0  0  0  0  0
   -1.8374   -2.5160    0.1400 C   0  0  0  0  0  0  0  0  0  0  0  0
   -2.4725   -1.9956   -0.5975 H   0  0  0  0  0  0  0  0  0  0  0  0
   -2.4492   -3.2875    0.6522 H   0  0  0  0  0  0  0  0  0  0  0  0
   -1.0414   -3.0393   -0.4292 H   0  0  0  0  0  0  0  0  0  0  0  0
    2.3251    1.9769    2.1636 H   0  0  0  0  0  0  0  0  0  0  0  0
    0.0206   -1.7972    3.0101 H   0  0  0  0  0  0  0  0  0  0  0  0
   -1.6197    1.7164    0.9874 H   0  0  0  0  0  0  0  0  0  0  0  0
    0.5753    1.1828    3.8242 H   0  0  0  0  0  0  0  0  0  0  0  0
   -3.3896    0.0199    0.4325 H   0  0  0  0  0  0  0  0  0  0  0  0
   -2.9615    0.1498   -1.3107 H   0  0  0  0  0  0  0  0  0  0  0  0
   -3.6462    1.5575   -0.4380 H   0  0  0  0  0  0  0  0  0  0  0  0
   -0.0400    2.5583   -0.8156 H   0  0  0  0  0  0  0  0  0  0  0  0
  1  2  1  0  0  0  0
  1  7  1  0  0  0  0
  2  3  1  0  0  0  0
  2  4  1  0  0  0  0
  4  5  1  0  0  0  0
  6  4  1  0  0  0  0
  7  8  1  0  0  0  0
  7  4  1  0  0  0  0
  8  2  1  0  0  0  0
  8  9  1  0  0  0  0
 10  8  1  0  0  0  0
  7 11  1  0  0  0  0
  7 12  1  0  0  0  0
 13 14  1  0  0  0  0
 13 22  1  0  0  0  0
 13 24  1  0  0  0  0
 14 15  1  0  0  0  0
 14 16  1  0  0  0  0
 14 26  1  0  0  0  0
 16 17  1  0  0  0  0
 16 18  1  0  0  0  0
 19 20  1  0  0  0  0
 19 21  1  0  0  0  0
 19 24  1  0  0  0  0
 22 23  1  0  0  0  0
 22 29  1  0  0  0  0
 22 32  1  0  0  0  0
 24 25  1  0  0  0  0
 26 27  1  0  0  0  0
 26 28  1  0  0  0  0
 29 30  1  0  0  0  0
 29 31  1  0  0  0  0
 32 33  1  0  0  0  0
 32 34  1  0  0  0  0
 35 32  1  0  0  0  0
 36 16  1  0  0  0  0
 37 29  1  0  0  0  0
 38 24  1  0  0  0  0
 39 26  1  0  0  0  0
 40 25  1  0  0  0  0
 41 25  1  0  0  0  0
 42 25  1  0  0  0  0
 43 19  1  0  0  0  0
  7 13  1  0  0  0  0
M  END
>  <DFT-ENERGY>
-1828.87333029

$$$$
