IPrP-2_A1
  CDK     08122413423D

 57 58  0  0  0  0  0  0  0  0999 V2000
   -0.2316   -0.0915   -0.5210 Ru  0  0  0  0  0  0  0  0  0  0  0  0
   -2.0060    0.0180   -1.9102 O   0  0  0  0  0  0  0  0  0  0  0  0
   -1.3820    0.9146    0.4831 C   0  0  0  0  0  0  0  0  0  0  0  0
   -1.1316    1.1926    1.5058 H   0  0  0  0  0  0  0  0  0  0  0  0
   -2.2888   -0.7412   -3.1360 C   0  0  0  0  0  0  0  0  0  0  0  0
   -2.6577   -0.0226   -3.8983 H   0  0  0  0  0  0  0  0  0  0  0  0
   -0.8969   -1.2673   -3.4619 C   0  0  0  0  0  0  0  0  0  0  0  0
   -0.5622   -2.0013   -2.7049 H   0  0  0  0  0  0  0  0  0  0  0  0
   -0.1610   -0.4380   -3.4612 H   0  0  0  0  0  0  0  0  0  0  0  0
   -0.8634   -1.7512   -4.4417 H   0  0  0  0  0  0  0  0  0  0  0  0
   -3.2935   -1.8318   -2.8067 C   0  0  0  0  0  0  0  0  0  0  0  0
   -3.0027   -2.3413   -1.8677 H   0  0  0  0  0  0  0  0  0  0  0  0
   -3.3394   -2.5950   -3.5898 H   0  0  0  0  0  0  0  0  0  0  0  0
   -4.3041   -1.4404   -2.6505 H   0  0  0  0  0  0  0  0  0  0  0  0
   -2.9471    0.8760   -1.4052 C   0  0  0  0  0  0  0  0  0  0  0  0
   -4.0926    1.2962   -2.0582 C   0  0  0  0  0  0  0  0  0  0  0  0
   -4.3318    0.9599   -3.0645 H   0  0  0  0  0  0  0  0  0  0  0  0
   -4.9408    2.1812   -1.4007 C   0  0  0  0  0  0  0  0  0  0  0  0
   -5.8440    2.5254   -1.9094 H   0  0  0  0  0  0  0  0  0  0  0  0
   -4.6622    2.6365   -0.1154 C   0  0  0  0  0  0  0  0  0  0  0  0
   -5.3460    3.3246    0.3786 H   0  0  0  0  0  0  0  0  0  0  0  0
   -3.5170    2.2049    0.5262 C   0  0  0  0  0  0  0  0  0  0  0  0
   -3.3023    2.5469    1.5375 H   0  0  0  0  0  0  0  0  0  0  0  0
   -2.6335    1.3333   -0.1132 C   0  0  0  0  0  0  0  0  0  0  0  0
   -0.9494   -2.1961    0.0272 Cl  0  0  0  0  0  0  0  0  0  0  0  0
    0.6976    1.5650   -1.8839 Cl  0  0  0  0  0  0  0  0  0  0  0  0
    1.4432   -0.0545    0.9045 P   0  0  0  0  0  0  0  0  0  0  0  0
    2.5418    1.5337    0.8368 C   0  0  0  0  0  0  0  0  0  0  0  0
    2.9162    1.5885   -0.2243 H   0  0  0  0  0  0  0  0  0  0  0  0
    1.7084    2.7825    1.0959 C   0  0  0  0  0  0  0  0  0  0  0  0
    0.7913    2.8191    0.4802 H   0  0  0  0  0  0  0  0  0  0  0  0
    1.4237    2.9026    2.1499 H   0  0  0  0  0  0  0  0  0  0  0  0
    0.6058    0.8539    3.4735 C   0  0  0  0  0  0  0  0  0  0  0  0
   -0.3570    1.1911    3.0496 H   0  0  0  0  0  0  0  0  0  0  0  0
    0.4155    0.6439    4.5359 H   0  0  0  0  0  0  0  0  0  0  0  0
    2.7239   -1.3765    0.3010 C   0  0  0  0  0  0  0  0  0  0  0  0
    3.7497   -0.9458    0.4079 H   0  0  0  0  0  0  0  0  0  0  0  0
    1.1410   -0.3928    2.7767 C   0  0  0  0  0  0  0  0  0  0  0  0
    0.1510   -1.5420    2.9225 C   0  0  0  0  0  0  0  0  0  0  0  0
    3.7347    1.4376    1.7802 C   0  0  0  0  0  0  0  0  0  0  0  0
    3.4491    1.4045    2.8391 H   0  0  0  0  0  0  0  0  0  0  0  0
    4.3779    0.5717    1.5753 H   0  0  0  0  0  0  0  0  0  0  0  0
    2.4190   -1.6029   -1.1794 C   0  0  0  0  0  0  0  0  0  0  0  0
    3.2138   -2.2020   -1.6480 H   0  0  0  0  0  0  0  0  0  0  0  0
    1.4877   -2.1839   -1.3387 H   0  0  0  0  0  0  0  0  0  0  0  0
    2.6442   -2.6731    1.0922 C   0  0  0  0  0  0  0  0  0  0  0  0
    3.0103   -2.5693    2.1203 H   0  0  0  0  0  0  0  0  0  0  0  0
    3.2585   -3.4521    0.6180 H   0  0  0  0  0  0  0  0  0  0  0  0
    1.6166   -3.0810    1.1354 H   0  0  0  0  0  0  0  0  0  0  0  0
    2.2779    3.6822    0.8193 H   0  0  0  0  0  0  0  0  0  0  0  0
    2.3589   -0.6728   -1.7750 H   0  0  0  0  0  0  0  0  0  0  0  0
    2.1193   -0.6797    3.2335 H   0  0  0  0  0  0  0  0  0  0  0  0
    4.3743    2.3265    1.6669 H   0  0  0  0  0  0  0  0  0  0  0  0
    0.0243   -1.8169    3.9777 H   0  0  0  0  0  0  0  0  0  0  0  0
    0.4534   -2.4609    2.3931 H   0  0  0  0  0  0  0  0  0  0  0  0
   -0.8558   -1.2891    2.5451 H   0  0  0  0  0  0  0  0  0  0  0  0
    1.3012    1.7065    3.4414 H   0  0  0  0  0  0  0  0  0  0  0  0
  2  1  1  0  0  0  0
  3  1  2  0  0  0  0
  4  3  1  0  0  0  0
  5  2  1  0  0  0  0
  6  5  1  0  0  0  0
  7  5  1  0  0  0  0
  8  7  1  0  0  0  0
  9  7  1  0  0  0  0
 10  7  1  0  0  0  0
 11  5  1  0  0  0  0
 12 11  1  0  0  0  0
 13 11  1  0  0  0  0
 14 11  1  0  0  0  0
 15  2  1  0  0  0  0
 15 24  1  0  0  0  0
 16 15  2  0  0  0  0
 17 16  1  0  0  0  0
 18 16  1  0  0  0  0
 19 18  1  0  0  0  0
 20 18  2  0  0  0  0
 21 20  1  0  0  0  0
 22 20  1  0  0  0  0
 22 24  2  0  0  0  0
 23 22  1  0  0  0  0
 24  3  1  0  0  0  0
  1 25  1  0  0  0  0
  1 26  1  0  0  0  0
 27 28  1  0  0  0  0
 27 36  1  0  0  0  0
 27 38  1  0  0  0  0
 28 29  1  0  0  0  0
 28 30  1  0  0  0  0
 28 40  1  0  0  0  0
 30 31  1  0  0  0  0
 30 32  1  0  0  0  0
 33 34  1  0  0  0  0
 33 35  1  0  0  0  0
 33 38  1  0  0  0  0
 36 37  1  0  0  0  0
 36 43  1  0  0  0  0
 36 46  1  0  0  0  0
 38 39  1  0  0  0  0
 40 41  1  0  0  0  0
 40 42  1  0  0  0  0
 43 44  1  0  0  0  0
 43 45  1  0  0  0  0
 46 47  1  0  0  0  0
 46 48  1  0  0  0  0
 49 46  1  0  0  0  0
 50 30  1  0  0  0  0
 51 43  1  0  0  0  0
 52 38  1  0  0  0  0
 53 40  1  0  0  0  0
 54 39  1  0  0  0  0
 55 39  1  0  0  0  0
 56 39  1  0  0  0  0
 57 33  1  0  0  0  0
  1 27  1  0  0  0  0
M  END
> <FrozenCore-PM6_ENERGY>
170.836

> <RMSD_CONF_CG-CS>
1.407836

> <RMSD_CONF_GO-CS>
0.000000

> <UID>


> <DESCRIPTOR_DEFINITION_1>
desc1=( echo "1 * ( e( $hartree_to_kcalmol * ( ( $freeEnergyZ - $freeEnergyD ) - ( $freeEnergyX + 2*$G_Ethene - $freeEnergyD - 2*$G_Propene ) - $DDG_reference_HGII ) / $kT ) ) " | bc -l )

> <DESCRIPTOR_DEFINITION_2>
desc1=( echo "1 * ( e( $hartree_to_kcalmol * ( ( $freeEnergyZ - $freeEnergyD ) - ( $freeEnergyX + 2*$G_Ethene - $freeEnergyD - 2*$G_Propene ) - $DDG_reference_HGII ) / $kT ) ) " | bc -l )

> <DESCRIPTOR_DEFINITION_3>
desc1=( echo "1 * ( e( $hartree_to_kcalmol * ( ( $freeEnergyZ - $freeEnergyD ) - ( $freeEnergyX + 2*$G_Ethene - $freeEnergyD - 2*$G_Propene ) - $DDG_reference_HGII ) / $kT ) ) " | bc -l )

> <WEIGHT_DEFINITION_1>
w1=$( echo "1 / ( 1 + e( $hartree_to_kcalmol * ( ( ( $freeEnergyX + 2*$G_Ethene - $freeEnergyD - 2*$G_Propene ) ) - ( $DG_referenceProductionBarrier + $magnitude4 ) ) / $kT ) )" | bc -l )

> <WEIGHT_DEFINITION_2>
w1=$( echo "1 / ( 1 + e( $hartree_to_kcalmol * ( ( ( $freeEnergyX + 2*$G_Ethene - $freeEnergyD - 2*$G_Propene ) ) - ( $DG_referenceProductionBarrier + $magnitude4 ) ) / $kT ) )" | bc -l )

> <WEIGHT_DEFINITION_3>
w1=$( echo "1 / ( 1 + e( $hartree_to_kcalmol * ( ( ( $freeEnergyX + 2*$G_Ethene - $freeEnergyD - 2*$G_Propene ) ) - ( $DG_referenceProductionBarrier + $magnitude4 ) ) / $kT ) )" | bc -l )

> <WEIGHT_DEFINITION_4>
w1=$( echo "1 / ( 1 + e( $hartree_to_kcalmol * ( ( ( $freeEnergyX + 2*$G_Ethene - $freeEnergyD - 2*$G_Propene ) ) - ( $DG_referenceProductionBarrier + $magnitude4 ) ) / $kT ) )" | bc -l )

> <CALCULATION_OF_OVERALL_FITNESS>
fitness=$( echo "( $desc1 + $desc2 + $desc3 ) * ( $w1 * $w2 * $w3 * $w4 )" | bc -l )

> <freeEnergyA>
-2174.15862955

> <freeEnergyF>
-2174.13680309

> <freeEnergyE>
-2174.15862955

> <freeEnergyC>
-1828.89397459

> <freeEnergyL>
-696.320354863

> <freeEnergyX>
-1907.42106084

> <freeEnergyZ>
-1828.87333079

> <freeEnergyD>
-1828.91054199

> <G_Propene>
-117.738020895

> <G_Ethene>
-78.4716324751

> <G_HoveydaProd>
-502.204109499

> <G_SIMes>
-924.27249048

> <G_HG_RuCl2_SIMes>
-2402.13728523

> <DG_referenceProductionBarrier>
0.01468968

> <DG_referencePrecursorStabilityHII>
-0.0052201621

> <DG_referencePrecursorStabilityHI>
0.0117775312

> <DDG_referencePrecursorStability>
.0169976933

> <DG_referenceSynt>
0.0226072217

> <hartree_to_kcalmol>
627.49467516

> <boltzmann_constant>
0.0000000000000000000000138066

> <avogadro_number>
602214000000000000000000

> <jmol_to_kcalmol>
0.00023901

> <temp>
313.15

> <kT>
.6223089948281258706000000000

> <magnitude1>
1.43290809

> <magnitude2>
2.86581618

> <magnitude3>
4.29872427

> <magnitude4>
5.73163236

> <DFT_IDENTIFIER>
1723551408578

> <DFT_MACHINE>
158.39.114.73

> <XTB_IDENTIFIER>
NREC

> <XTB_MACHINE>
NREC

> <DESCRIPTOR_1>
.00064987532751459637

> <DESCRIPTOR_2>
9.383059777048198632

> <DESCRIPTOR_3>
.008430390960774600

> <WEIGHT_1>
.99990134811231213127

> <WEIGHT_2>
.99996755970010419991

> <WEIGHT_3>
.16207333094292964563

> <WEIGHT_4>
.99999997233797793035

> <FITNESS>
1.52201583372594178348

$$$$
