
  CDK     02092407263D

 46 49  0  0  0  0  0  0  0  0999 V2000
    1.8943    1.1663   -0.2250 Ru  0  0  0  0  0  0  0  0  0  0  0  0
    3.0298    1.0930   -1.8263 C   0  0  0  0  0  0  0  0  0  0  0  0
    2.5925    1.5263   -2.7429 H   0  0  0  0  0  0  0  0  0  0  0  0
    3.7719    2.1460   -0.9290 C   0  0  0  0  0  0  0  0  0  0  0  0
    3.8087    3.0750   -1.5274 H   0  0  0  0  0  0  0  0  0  0  0  0
    3.0645    2.5798    0.4351 C   0  0  0  0  0  0  0  0  0  0  0  0
    3.6707    2.3134    1.3202 H   0  0  0  0  0  0  0  0  0  0  0  0
    2.6715    3.6113    0.3994 H   0  0  0  0  0  0  0  0  0  0  0  0
    4.7536    1.7193   -0.6553 H   0  0  0  0  0  0  0  0  0  0  0  0
    3.5862    0.1463   -1.9472 H   0  0  0  0  0  0  0  0  0  0  0  0
    0.6191    2.8644   -1.3381 Cl  0  0  0  0  0  0  0  0  0  0  0  0
    3.2894   -0.4822    0.7982 Cl  0  0  0  0  0  0  0  0  0  0  0  0
   -0.1184    0.1132    0.2836 P   0  0  0  0  0  0  0  0  0  0  0  0
   -1.9145   -2.1391    3.2320 C   0  0  0  0  0  0  0  0  0  0  0  0
    0.1192   -1.0580   -1.1055 C   0  0  0  0  0  0  0  0  0  0  0  0
    0.6401   -1.0654    2.7418 C   0  0  0  0  0  0  0  0  0  0  0  0
   -1.6868   -1.3889    2.0715 C   0  0  0  0  0  0  0  0  0  0  0  0
   -1.7220    0.9610    0.0117 C   0  0  0  0  0  0  0  0  0  0  0  0
   -0.4032   -0.8586    1.8194 C   0  0  0  0  0  0  0  0  0  0  0  0
    0.5174   -2.3874   -0.8654 C   0  0  0  0  0  0  0  0  0  0  0  0
    0.3975   -1.8132    3.9044 C   0  0  0  0  0  0  0  0  0  0  0  0
   -1.9513    2.1838    0.6704 C   0  0  0  0  0  0  0  0  0  0  0  0
    0.0391   -0.5587   -2.4249 C   0  0  0  0  0  0  0  0  0  0  0  0
   -3.9759    1.0265   -0.8972 C   0  0  0  0  0  0  0  0  0  0  0  0
   -3.1939    2.8170    0.5497 C   0  0  0  0  0  0  0  0  0  0  0  0
    0.8111   -3.2246   -1.9487 C   0  0  0  0  0  0  0  0  0  0  0  0
    0.7213   -2.7376   -3.2634 C   0  0  0  0  0  0  0  0  0  0  0  0
    0.3369   -1.4082   -3.4995 C   0  0  0  0  0  0  0  0  0  0  0  0
   -2.7344    0.3827   -0.7757 C   0  0  0  0  0  0  0  0  0  0  0  0
   -4.2072    2.2401   -0.2336 C   0  0  0  0  0  0  0  0  0  0  0  0
   -0.8736   -2.3511    4.1509 C   0  0  0  0  0  0  0  0  0  0  0  0
   -2.9146   -2.5549    3.4225 H   0  0  0  0  0  0  0  0  0  0  0  0
    1.6421   -0.6659    2.5262 H   0  0  0  0  0  0  0  0  0  0  0  0
   -2.5091   -1.2091    1.3651 H   0  0  0  0  0  0  0  0  0  0  0  0
    0.6070   -2.7545    0.1661 H   0  0  0  0  0  0  0  0  0  0  0  0
    1.2153   -1.9739    4.6217 H   0  0  0  0  0  0  0  0  0  0  0  0
   -1.1468    2.6469    1.2585 H   0  0  0  0  0  0  0  0  0  0  0  0
   -0.2347    0.4940   -2.5934 H   0  0  0  0  0  0  0  0  0  0  0  0
   -4.7646    0.5751   -1.5164 H   0  0  0  0  0  0  0  0  0  0  0  0
   -3.3681    3.7754    1.0592 H   0  0  0  0  0  0  0  0  0  0  0  0
    1.1208   -4.2634   -1.7649 H   0  0  0  0  0  0  0  0  0  0  0  0
    0.9591   -3.3986   -4.1096 H   0  0  0  0  0  0  0  0  0  0  0  0
    0.2757   -1.0238   -4.5279 H   0  0  0  0  0  0  0  0  0  0  0  0
   -2.5509   -0.5660   -1.3002 H   0  0  0  0  0  0  0  0  0  0  0  0
   -5.1795    2.7440   -0.3325 H   0  0  0  0  0  0  0  0  0  0  0  0
   -1.0583   -2.9349    5.0646 H   0  0  0  0  0  0  0  0  0  0  0  0
  2  4  1  0  0  0  0
  2  1  1  0  0  0  0
  2  3  1  0  0  0  0
  4  6  1  0  0  0  0
  4  5  1  0  0  0  0
  6  1  1  0  0  0  0
  6  8  1  0  0  0  0
  7  6  1  0  0  0  0
  9  4  1  0  0  0  0
 10  2  1  0  0  0  0
  1 11  1  0  0  0  0
  1 12  1  0  0  0  0
 14 17  1  0  0  0  0
 15 13  1  0  0  0  0
 16 19  1  0  0  0  0
 17 19  2  0  0  0  0
 18 13  1  0  0  0  0
 19 13  1  0  0  0  0
 20 15  1  0  0  0  0
 21 16  2  0  0  0  0
 22 18  2  0  0  0  0
 23 15  2  0  0  0  0
 24 29  2  0  0  0  0
 25 22  1  0  0  0  0
 26 20  2  0  0  0  0
 27 26  1  0  0  0  0
 28 23  1  0  0  0  0
 29 18  1  0  0  0  0
 30 24  1  0  0  0  0
 31 14  2  0  0  0  0
 32 14  1  0  0  0  0
 33 16  1  0  0  0  0
 34 17  1  0  0  0  0
 35 20  1  0  0  0  0
 36 21  1  0  0  0  0
 37 22  1  0  0  0  0
 38 23  1  0  0  0  0
 39 24  1  0  0  0  0
 40 25  1  0  0  0  0
 41 26  1  0  0  0  0
 42 27  1  0  0  0  0
 43 28  1  0  0  0  0
 44 29  1  0  0  0  0
 45 30  1  0  0  0  0
 46 31  1  0  0  0  0
 21 31  1  0  0  0  0
 25 30  2  0  0  0  0
 27 28  2  0  0  0  0
  1 13  1  0  0  0  0
M  END
>  <DFT-ENERGY>
-2167.92026425

$$$$
