
  CDK     04202400403D

 65 69  0  0  0  0  0  0  0  0999 V2000
    1.8765   -2.0547   -0.6507 H   0  0  0  0  0  0  0  0  0  0  0  0
    3.0769   -1.7900   -0.5954 C   0  0  0  0  0  0  0  0  0  0  0  0
    3.3214   -2.8494   -0.3733 H   0  0  0  0  0  0  0  0  0  0  0  0
    3.2667   -1.1697   -1.9369 C   0  0  0  0  0  0  0  0  0  0  0  0
    4.0480   -0.4021   -2.0529 H   0  0  0  0  0  0  0  0  0  0  0  0
    3.1100   -1.8297   -2.8068 H   0  0  0  0  0  0  0  0  0  0  0  0
    1.5422   -0.3691   -1.0907 Ru  0  0  0  0  0  0  0  0  0  0  0  0
    2.9626   -0.7383    0.4402 C   0  0  0  0  0  0  0  0  0  0  0  0
    3.7272    0.0504    0.4617 H   0  0  0  0  0  0  0  0  0  0  0  0
    2.5423   -1.0333    1.4175 H   0  0  0  0  0  0  0  0  0  0  0  0
    2.7190    1.7571   -1.1502 Cl  0  0  0  0  0  0  0  0  0  0  0  0
    0.2291   -1.9541   -2.3204 Cl  0  0  0  0  0  0  0  0  0  0  0  0
    0.2157    1.0763   -1.6224 C   0  0  0  0  0  0  0  0  0  0  0  0
   -0.1755    1.7801   -2.9266 C   0  0  0  0  0  0  0  0  0  0  0  0
   -0.9187    3.0282   -2.3853 C   0  0  0  0  0  0  0  0  0  0  0  0
   -0.1869    3.8440   -2.2333 H   0  0  0  0  0  0  0  0  0  0  0  0
   -1.7016    3.3878   -3.0794 H   0  0  0  0  0  0  0  0  0  0  0  0
   -1.5032    2.6482   -1.0052 C   0  0  0  0  0  0  0  0  0  0  0  0
   -0.5694    1.5089   -0.6375 N   0  0  0  0  0  0  0  0  0  0  0  0
   -1.1494    0.8545   -3.7120 C   0  0  0  0  0  0  0  0  0  0  0  0
   -2.0200    0.5469   -3.1040 H   0  0  0  0  0  0  0  0  0  0  0  0
   -0.6370   -0.0651   -4.0415 H   0  0  0  0  0  0  0  0  0  0  0  0
   -1.5118    1.4094   -4.5999 H   0  0  0  0  0  0  0  0  0  0  0  0
    0.9987    2.0801   -3.8595 C   0  0  0  0  0  0  0  0  0  0  0  0
    1.2542    3.3684   -4.3568 C   0  0  0  0  0  0  0  0  0  0  0  0
    0.6266    4.2182   -4.0552 H   0  0  0  0  0  0  0  0  0  0  0  0
    2.3158    3.5983   -5.2481 C   0  0  0  0  0  0  0  0  0  0  0  0
    2.4994    4.6167   -5.6206 H   0  0  0  0  0  0  0  0  0  0  0  0
    3.1349    2.5393   -5.6585 C   0  0  0  0  0  0  0  0  0  0  0  0
    3.9696    2.7194   -6.3514 H   0  0  0  0  0  0  0  0  0  0  0  0
    2.8741    1.2445   -5.1815 C   0  0  0  0  0  0  0  0  0  0  0  0
    3.5057    0.4014   -5.4979 H   0  0  0  0  0  0  0  0  0  0  0  0
    1.8123    1.0165   -4.3000 C   0  0  0  0  0  0  0  0  0  0  0  0
    1.6213    0.0015   -3.9241 H   0  0  0  0  0  0  0  0  0  0  0  0
   -1.4001    3.8083   -0.0117 C   0  0  0  0  0  0  0  0  0  0  0  0
   -2.1042    4.6038   -0.3267 H   0  0  0  0  0  0  0  0  0  0  0  0
   -0.3844    4.2384    0.0138 H   0  0  0  0  0  0  0  0  0  0  0  0
   -1.6850    3.4914    1.0109 H   0  0  0  0  0  0  0  0  0  0  0  0
   -2.9661    2.1826   -1.0441 C   0  0  0  0  0  0  0  0  0  0  0  0
   -3.6040    3.0343   -1.3524 H   0  0  0  0  0  0  0  0  0  0  0  0
   -3.2988    1.8610   -0.0377 H   0  0  0  0  0  0  0  0  0  0  0  0
   -3.1349    1.3539   -1.7517 H   0  0  0  0  0  0  0  0  0  0  0  0
   -0.5106    0.8260    0.6513 C   0  0  0  0  0  0  0  0  0  0  0  0
    0.3106    1.3433    1.6941 C   0  0  0  0  0  0  0  0  0  0  0  0
    0.3876    0.6070    2.8913 C   0  0  0  0  0  0  0  0  0  0  0  0
    1.0202    0.9850    3.7052 H   0  0  0  0  0  0  0  0  0  0  0  0
   -0.3107   -0.5910    3.0585 C   0  0  0  0  0  0  0  0  0  0  0  0
   -0.2273   -1.1498    4.0023 H   0  0  0  0  0  0  0  0  0  0  0  0
   -1.1194   -1.0773    2.0283 C   0  0  0  0  0  0  0  0  0  0  0  0
   -1.6681   -2.0171    2.1676 H   0  0  0  0  0  0  0  0  0  0  0  0
   -1.2504   -0.3854    0.8095 C   0  0  0  0  0  0  0  0  0  0  0  0
    1.0902    2.6376    1.5806 C   0  0  0  0  0  0  0  0  0  0  0  0
    0.4774    3.4520    2.0248 H   0  0  0  0  0  0  0  0  0  0  0  0
    1.2318    2.8787    0.5122 H   0  0  0  0  0  0  0  0  0  0  0  0
    2.4648    2.6284    2.2563 C   0  0  0  0  0  0  0  0  0  0  0  0
    2.4022    2.5357    3.3593 H   0  0  0  0  0  0  0  0  0  0  0  0
    2.9949    3.5759    2.0369 H   0  0  0  0  0  0  0  0  0  0  0  0
    3.0877    1.8008    1.8675 H   0  0  0  0  0  0  0  0  0  0  0  0
   -2.1937   -0.9215   -0.2500 C   0  0  0  0  0  0  0  0  0  0  0  0
   -1.7857   -0.6880   -1.2503 H   0  0  0  0  0  0  0  0  0  0  0  0
   -3.1565   -0.3741   -0.1629 H   0  0  0  0  0  0  0  0  0  0  0  0
   -2.4732   -2.4242   -0.1851 C   0  0  0  0  0  0  0  0  0  0  0  0
   -3.0376   -2.7154    0.7238 H   0  0  0  0  0  0  0  0  0  0  0  0
   -1.5295   -3.0021   -0.2219 H   0  0  0  0  0  0  0  0  0  0  0  0
   -3.0810   -2.7275   -1.0597 H   0  0  0  0  0  0  0  0  0  0  0  0
  1  2  1  0  0  0  0
  1  7  1  0  0  0  0
  2  3  1  0  0  0  0
  2  4  1  0  0  0  0
  4  5  1  0  0  0  0
  4  6  1  0  0  0  0
  7  8  1  0  0  0  0
  4  7  1  0  0  0  0
  2  8  1  0  0  0  0
  8  9  1  0  0  0  0
  8 10  1  0  0  0  0
  7 11  1  0  0  0  0
  7 12  1  0  0  0  0
 13 14  1  0  0  0  0
 13 19  1  0  0  0  0
 14 15  1  0  0  0  0
 14 20  1  0  0  0  0
 14 24  1  0  0  0  0
 15 16  1  0  0  0  0
 15 17  1  0  0  0  0
 15 18  1  0  0  0  0
 18 19  1  0  0  0  0
 18 35  1  0  0  0  0
 18 39  1  0  0  0  0
 19 43  1  0  0  0  0
 20 21  1  0  0  0  0
 20 22  1  0  0  0  0
 20 23  1  0  0  0  0
 24 25  1  0  0  0  0
 24 33  2  0  0  0  0
 25 26  1  0  0  0  0
 25 27  2  0  0  0  0
 27 28  1  0  0  0  0
 27 29  1  0  0  0  0
 29 30  1  0  0  0  0
 29 31  2  0  0  0  0
 31 32  1  0  0  0  0
 31 33  1  0  0  0  0
 33 34  1  0  0  0  0
 35 36  1  0  0  0  0
 35 37  1  0  0  0  0
 35 38  1  0  0  0  0
 39 40  1  0  0  0  0
 39 41  1  0  0  0  0
 39 42  1  0  0  0  0
 43 44  1  0  0  0  0
 43 51  2  0  0  0  0
 44 45  2  0  0  0  0
 44 52  1  0  0  0  0
 45 46  1  0  0  0  0
 45 47  1  0  0  0  0
 47 48  1  0  0  0  0
 47 49  2  0  0  0  0
 49 50  1  0  0  0  0
 49 51  1  0  0  0  0
 51 59  1  0  0  0  0
 52 53  1  0  0  0  0
 52 54  1  0  0  0  0
 52 55  1  0  0  0  0
 55 56  1  0  0  0  0
 55 57  1  0  0  0  0
 55 58  1  0  0  0  0
 59 60  1  0  0  0  0
 59 61  1  0  0  0  0
 59 62  1  0  0  0  0
 62 63  1  0  0  0  0
 62 64  1  0  0  0  0
 62 65  1  0  0  0  0
  7 13  1  0  0  0  0
M  END
>  <DFT-ENERGY>
-2080.05904434

$$$$
