
  CDK     04192417103D

 71 74  0  0  0  0  0  0  0  0999 V2000
    4.1089   -0.1862   -1.6655 C   0  0  0  0  0  0  0  0  0  0  0  0
    4.1455    0.8914   -1.9022 H   0  0  0  0  0  0  0  0  0  0  0  0
    5.0209   -0.6895   -2.0564 H   0  0  0  0  0  0  0  0  0  0  0  0
    3.2492   -0.6261   -2.2144 H   0  0  0  0  0  0  0  0  0  0  0  0
    4.0138   -0.4429   -0.1785 C   0  0  0  0  0  0  0  0  0  0  0  0
    4.0670   -1.5053    0.1240 H   0  0  0  0  0  0  0  0  0  0  0  0
    4.4541    0.4792    0.8161 C   0  0  0  0  0  0  0  0  0  0  0  0
    4.6667    1.5072    0.4749 H   0  0  0  0  0  0  0  0  0  0  0  0
    5.1624   -0.0206    2.0526 C   0  0  0  0  0  0  0  0  0  0  0  0
    5.2310    0.7489    2.8444 H   0  0  0  0  0  0  0  0  0  0  0  0
    6.1991   -0.3086    1.7737 H   0  0  0  0  0  0  0  0  0  0  0  0
    4.6547   -0.9191    2.4558 H   0  0  0  0  0  0  0  0  0  0  0  0
    2.5752    1.1816    1.9831 C   0  0  0  0  0  0  0  0  0  0  0  0
    2.7317    0.6683    2.9538 H   0  0  0  0  0  0  0  0  0  0  0  0
    2.6819    2.2857    1.9445 H   0  0  0  0  0  0  0  0  0  0  0  0
    2.0663    0.2367    0.4896 Ru  0  0  0  0  0  0  0  0  0  0  0  0
    2.1068   -1.7942    1.8027 Cl  0  0  0  0  0  0  0  0  0  0  0  0
    2.2563    2.3188   -0.7097 Cl  0  0  0  0  0  0  0  0  0  0  0  0
    0.1309   -0.0298    0.2522 C   0  0  0  0  0  0  0  0  0  0  0  0
   -0.4950   -1.0373   -0.7461 C   0  0  0  0  0  0  0  0  0  0  0  0
   -1.7746   -1.4291    0.0339 C   0  0  0  0  0  0  0  0  0  0  0  0
   -2.5774   -1.8295   -0.6103 H   0  0  0  0  0  0  0  0  0  0  0  0
   -1.5051   -2.2079    0.7754 H   0  0  0  0  0  0  0  0  0  0  0  0
   -2.2136   -0.1573    0.7789 C   0  0  0  0  0  0  0  0  0  0  0  0
   -0.8471    0.4684    1.0213 N   0  0  0  0  0  0  0  0  0  0  0  0
    0.4087   -2.2518   -1.0311 C   0  0  0  0  0  0  0  0  0  0  0  0
    0.7036   -2.7640   -0.0973 H   0  0  0  0  0  0  0  0  0  0  0  0
    1.3343   -1.9351   -1.5546 H   0  0  0  0  0  0  0  0  0  0  0  0
   -0.1216   -2.9554   -1.7026 H   0  0  0  0  0  0  0  0  0  0  0  0
   -0.8256   -0.3785   -2.1003 C   0  0  0  0  0  0  0  0  0  0  0  0
   -0.1512    0.7661   -2.5607 C   0  0  0  0  0  0  0  0  0  0  0  0
    0.6212    1.2449   -1.9406 H   0  0  0  0  0  0  0  0  0  0  0  0
   -0.4459    1.3158   -3.8191 C   0  0  0  0  0  0  0  0  0  0  0  0
    0.0930    2.2175   -4.1454 H   0  0  0  0  0  0  0  0  0  0  0  0
   -1.4089    0.7247   -4.6473 C   0  0  0  0  0  0  0  0  0  0  0  0
   -1.6416    1.1568   -5.6314 H   0  0  0  0  0  0  0  0  0  0  0  0
   -2.0683   -0.4346   -4.2089 C   0  0  0  0  0  0  0  0  0  0  0  0
   -2.8169   -0.9215   -4.8511 H   0  0  0  0  0  0  0  0  0  0  0  0
   -1.7774   -0.9798   -2.9512 C   0  0  0  0  0  0  0  0  0  0  0  0
   -2.3026   -1.8936   -2.6362 H   0  0  0  0  0  0  0  0  0  0  0  0
   -3.1020    0.7666   -0.0687 C   0  0  0  0  0  0  0  0  0  0  0  0
   -4.0347    0.2287   -0.3304 H   0  0  0  0  0  0  0  0  0  0  0  0
   -2.6103    1.0800   -1.0057 H   0  0  0  0  0  0  0  0  0  0  0  0
   -3.3845    1.6670    0.5099 H   0  0  0  0  0  0  0  0  0  0  0  0
   -2.9371   -0.4731    2.0880 C   0  0  0  0  0  0  0  0  0  0  0  0
   -3.9365   -0.8867    1.8477 H   0  0  0  0  0  0  0  0  0  0  0  0
   -3.0866    0.4400    2.6969 H   0  0  0  0  0  0  0  0  0  0  0  0
   -2.3955   -1.2209    2.6931 H   0  0  0  0  0  0  0  0  0  0  0  0
   -0.6177    1.5232    1.9886 C   0  0  0  0  0  0  0  0  0  0  0  0
   -0.6631    2.8770    1.5537 C   0  0  0  0  0  0  0  0  0  0  0  0
   -0.3767    3.8767    2.5005 C   0  0  0  0  0  0  0  0  0  0  0  0
   -0.3917    4.9280    2.1855 H   0  0  0  0  0  0  0  0  0  0  0  0
   -0.0537    3.5589    3.8244 C   0  0  0  0  0  0  0  0  0  0  0  0
    0.1747    4.3602    4.5424 H   0  0  0  0  0  0  0  0  0  0  0  0
   -0.0044    2.2227    4.2254 C   0  0  0  0  0  0  0  0  0  0  0  0
    0.2746    1.9704    5.2590 H   0  0  0  0  0  0  0  0  0  0  0  0
   -0.2803    1.1766    3.3224 C   0  0  0  0  0  0  0  0  0  0  0  0
   -0.9858    3.2625    0.1234 C   0  0  0  0  0  0  0  0  0  0  0  0
   -2.0895    3.2776   -0.0015 H   0  0  0  0  0  0  0  0  0  0  0  0
   -0.6165    2.4672   -0.5494 H   0  0  0  0  0  0  0  0  0  0  0  0
   -0.4199    4.6055   -0.3417 C   0  0  0  0  0  0  0  0  0  0  0  0
   -0.8844    5.4674    0.1792 H   0  0  0  0  0  0  0  0  0  0  0  0
   -0.6144    4.7357   -1.4245 H   0  0  0  0  0  0  0  0  0  0  0  0
    0.6762    4.6426   -0.1892 H   0  0  0  0  0  0  0  0  0  0  0  0
   -0.1365   -0.2481    3.8129 C   0  0  0  0  0  0  0  0  0  0  0  0
    0.9324   -0.4196    4.0597 H   0  0  0  0  0  0  0  0  0  0  0  0
   -0.3289   -0.9592    2.9911 H   0  0  0  0  0  0  0  0  0  0  0  0
   -0.9923   -0.5804    5.0423 C   0  0  0  0  0  0  0  0  0  0  0  0
   -2.0737   -0.4393    4.8442 H   0  0  0  0  0  0  0  0  0  0  0  0
   -0.7339    0.0580    5.9110 H   0  0  0  0  0  0  0  0  0  0  0  0
   -0.8343   -1.6339    5.3481 H   0  0  0  0  0  0  0  0  0  0  0  0
  1  2  1  0  0  0  0
  1  5  1  0  0  0  0
  1  3  1  0  0  0  0
  1  4  1  0  0  0  0
  5  6  1  0  0  0  0
  5 16  1  0  0  0  0
  5  7  1  0  0  0  0
  7  9  1  0  0  0  0
  7  8  1  0  0  0  0
  9 10  1  0  0  0  0
  9 11  1  0  0  0  0
  9 12  1  0  0  0  0
 13 14  1  0  0  0  0
 13 15  1  0  0  0  0
  7 13  1  0  0  0  0
 13 16  1  0  0  0  0
 16 17  1  0  0  0  0
 16 18  1  0  0  0  0
 19 20  1  0  0  0  0
 19 25  1  0  0  0  0
 20 21  1  0  0  0  0
 20 26  1  0  0  0  0
 20 30  1  0  0  0  0
 21 22  1  0  0  0  0
 21 23  1  0  0  0  0
 21 24  1  0  0  0  0
 24 25  1  0  0  0  0
 24 41  1  0  0  0  0
 24 45  1  0  0  0  0
 25 49  1  0  0  0  0
 26 27  1  0  0  0  0
 26 28  1  0  0  0  0
 26 29  1  0  0  0  0
 30 31  1  0  0  0  0
 30 39  2  0  0  0  0
 31 32  1  0  0  0  0
 31 33  2  0  0  0  0
 33 34  1  0  0  0  0
 33 35  1  0  0  0  0
 35 36  1  0  0  0  0
 35 37  2  0  0  0  0
 37 38  1  0  0  0  0
 37 39  1  0  0  0  0
 39 40  1  0  0  0  0
 41 42  1  0  0  0  0
 41 43  1  0  0  0  0
 41 44  1  0  0  0  0
 45 46  1  0  0  0  0
 45 47  1  0  0  0  0
 45 48  1  0  0  0  0
 49 50  1  0  0  0  0
 49 57  2  0  0  0  0
 50 51  2  0  0  0  0
 50 58  1  0  0  0  0
 51 52  1  0  0  0  0
 51 53  1  0  0  0  0
 53 54  1  0  0  0  0
 53 55  2  0  0  0  0
 55 56  1  0  0  0  0
 55 57  1  0  0  0  0
 57 65  1  0  0  0  0
 58 59  1  0  0  0  0
 58 60  1  0  0  0  0
 58 61  1  0  0  0  0
 61 62  1  0  0  0  0
 61 63  1  0  0  0  0
 61 64  1  0  0  0  0
 65 66  1  0  0  0  0
 65 67  1  0  0  0  0
 65 68  1  0  0  0  0
 68 69  1  0  0  0  0
 68 70  1  0  0  0  0
 68 71  1  0  0  0  0
 16 19  1  0  0  0  0
M  END
>  <DFT-ENERGY>
-2158.61303867

$$$$
