 
  -MOLDEN-
Molden generated mol file
 59 63  0  0  0  0  0  0  0  0999 V2000
    1.1951   -0.7192   -0.1347 RU  0  0  0  0  0  0  0  0  0  0  0  0
    2.7286   -0.7039   -1.3490 C   0  0  0  0  0  0  0  0  0  0  0  0
    2.5220   -1.0611   -2.3737 H   0  0  0  0  0  0  0  0  0  0  0  0
    3.1066   -1.8693   -0.3462 C   0  0  0  0  0  0  0  0  0  0  0  0
    3.1828   -2.7889   -0.9544 H   0  0  0  0  0  0  0  0  0  0  0  0
    2.0752   -2.1874    0.8121 C   0  0  0  0  0  0  0  0  0  0  0  0
    2.4589   -1.9372    1.8173 H   0  0  0  0  0  0  0  0  0  0  0  0
    1.5909   -3.1744    0.7046 H   0  0  0  0  0  0  0  0  0  0  0  0
    4.0439   -1.5591    0.1503 H   0  0  0  0  0  0  0  0  0  0  0  0
    3.3898    0.1766   -1.2615 H   0  0  0  0  0  0  0  0  0  0  0  0
    0.1736   -2.3445   -1.5626 CL  0  0  0  0  0  0  0  0  0  0  0  0
    2.3847    0.8046    1.2753 CL  0  0  0  0  0  0  0  0  0  0  0  0
   -1.4751    0.1593    1.0181 N   0  0  0  0  0  0  0  0  0  0  0  0
   -0.9712    1.3173   -0.7532 N   0  0  0  0  0  0  0  0  0  0  0  0
   -0.5179    0.3129    0.0550 C   0  0  0  0  0  0  0  0  0  0  0  0
   -2.5232    1.0623    0.8144 C   0  0  0  0  0  0  0  0  0  0  0  0
   -3.3857    1.0916    1.4829 H   0  0  0  0  0  0  0  0  0  0  0  0
   -2.2059    1.7912   -0.2990 C   0  0  0  0  0  0  0  0  0  0  0  0
   -2.7296    2.5980   -0.8154 H   0  0  0  0  0  0  0  0  0  0  0  0
   -1.3810   -0.8098    2.0830 C   0  0  0  0  0  0  0  0  0  0  0  0
   -1.9066   -2.1023    1.8683 C   0  0  0  0  0  0  0  0  0  0  0  0
   -1.7549   -3.0394    2.9056 C   0  0  0  0  0  0  0  0  0  0  0  0
   -2.1532   -4.0551    2.7586 H   0  0  0  0  0  0  0  0  0  0  0  0
   -1.1227   -2.7126    4.1180 C   0  0  0  0  0  0  0  0  0  0  0  0
   -0.6635   -1.3959    4.3032 C   0  0  0  0  0  0  0  0  0  0  0  0
   -0.1983   -1.1134    5.2602 H   0  0  0  0  0  0  0  0  0  0  0  0
   -0.7862   -0.4173    3.3023 C   0  0  0  0  0  0  0  0  0  0  0  0
   -2.6022   -2.4641    0.5856 C   0  0  0  0  0  0  0  0  0  0  0  0
   -3.3532   -1.7008    0.2971 H   0  0  0  0  0  0  0  0  0  0  0  0
   -3.1160   -3.4387    0.6811 H   0  0  0  0  0  0  0  0  0  0  0  0
   -1.8705   -2.5336   -0.2492 H   0  0  0  0  0  0  0  0  0  0  0  0
   -0.9342   -3.7506    5.1955 C   0  0  0  0  0  0  0  0  0  0  0  0
   -1.0051   -3.3056    6.2074 H   0  0  0  0  0  0  0  0  0  0  0  0
    0.0692   -4.2212    5.1166 H   0  0  0  0  0  0  0  0  0  0  0  0
   -1.6841   -4.5614    5.1177 H   0  0  0  0  0  0  0  0  0  0  0  0
   -0.3017    0.9890    3.5206 C   0  0  0  0  0  0  0  0  0  0  0  0
   -1.0697    1.7368    3.2365 H   0  0  0  0  0  0  0  0  0  0  0  0
    0.5979    1.1875    2.8979 H   0  0  0  0  0  0  0  0  0  0  0  0
   -0.0346    1.1506    4.5815 H   0  0  0  0  0  0  0  0  0  0  0  0
   -0.2477    1.7933   -1.9075 C   0  0  0  0  0  0  0  0  0  0  0  0
    0.6822    2.8418   -1.7366 C   0  0  0  0  0  0  0  0  0  0  0  0
    1.4102    3.2476   -2.8689 C   0  0  0  0  0  0  0  0  0  0  0  0
    2.1442    4.0606   -2.7580 H   0  0  0  0  0  0  0  0  0  0  0  0
    1.2195    2.6540   -4.1291 C   0  0  0  0  0  0  0  0  0  0  0  0
    0.2426    1.6504   -4.2585 C   0  0  0  0  0  0  0  0  0  0  0  0
    0.0549    1.2003   -5.2455 H   0  0  0  0  0  0  0  0  0  0  0  0
   -0.5146    1.2031   -3.1623 C   0  0  0  0  0  0  0  0  0  0  0  0
    0.8860    3.5005   -0.4007 C   0  0  0  0  0  0  0  0  0  0  0  0
    1.4069    2.8107    0.2992 H   0  0  0  0  0  0  0  0  0  0  0  0
   -0.0787    3.7765    0.0716 H   0  0  0  0  0  0  0  0  0  0  0  0
    1.4963    4.4167   -0.5058 H   0  0  0  0  0  0  0  0  0  0  0  0
    2.0483    3.0783   -5.3153 C   0  0  0  0  0  0  0  0  0  0  0  0
    1.4805    2.9908   -6.2622 H   0  0  0  0  0  0  0  0  0  0  0  0
    2.9495    2.4361   -5.4147 H   0  0  0  0  0  0  0  0  0  0  0  0
    2.4006    4.1233   -5.2149 H   0  0  0  0  0  0  0  0  0  0  0  0
   -1.5640    0.1382   -3.3203 C   0  0  0  0  0  0  0  0  0  0  0  0
   -2.5232    0.4332   -2.8484 H   0  0  0  0  0  0  0  0  0  0  0  0
   -1.2328   -0.8045   -2.8325 H   0  0  0  0  0  0  0  0  0  0  0  0
   -1.7522   -0.0698   -4.3900 H   0  0  0  0  0  0  0  0  0  0  0  0
  1  2  1  0  0  0  0
  1  4  1  0  0  0  0
  1  6  1  0  0  0  0
  1 11  1  0  0  0  0
  1 12  1  0  0  0  0
  1 15  1  0  0  0  0
  2  3  1  0  0  0  0
  2  4  1  0  0  0  0
  2 10  1  0  0  0  0
  4  5  1  0  0  0  0
  4  6  1  0  0  0  0
  4  9  1  0  0  0  0
  6  7  1  0  0  0  0
  6  8  1  0  0  0  0
 13 15  1  0  0  0  0
 13 16  1  0  0  0  0
 13 20  1  0  0  0  0
 14 15  1  0  0  0  0
 14 18  1  0  0  0  0
 14 40  1  0  0  0  0
 16 17  1  0  0  0  0
 16 18  2  0  0  0  0
 18 19  1  0  0  0  0
 20 21  2  0  0  0  0
 20 27  2  0  0  0  0
 21 22  2  0  0  0  0
 21 28  1  0  0  0  0
 22 23  1  0  0  0  0
 22 24  2  0  0  0  0
 24 25  2  0  0  0  0
 24 32  1  0  0  0  0
 25 26  1  0  0  0  0
 25 27  2  0  0  0  0
 27 36  1  0  0  0  0
 28 29  1  0  0  0  0
 28 30  1  0  0  0  0
 28 31  1  0  0  0  0
 32 33  1  0  0  0  0
 32 34  1  0  0  0  0
 32 35  1  0  0  0  0
 36 37  1  0  0  0  0
 36 38  1  0  0  0  0
 36 39  1  0  0  0  0
 40 41  2  0  0  0  0
 40 47  2  0  0  0  0
 41 42  2  0  0  0  0
 41 48  1  0  0  0  0
 42 43  1  0  0  0  0
 42 44  2  0  0  0  0
 44 45  2  0  0  0  0
 44 52  1  0  0  0  0
 45 46  1  0  0  0  0
 45 47  2  0  0  0  0
 47 56  1  0  0  0  0
 48 49  1  0  0  0  0
 48 50  1  0  0  0  0
 48 51  1  0  0  0  0
 52 53  1  0  0  0  0
 52 54  1  0  0  0  0
 52 55  1  0  0  0  0
 56 57  1  0  0  0  0
 56 58  1  0  0  0  0
 56 59  1  0  0  0  0
>  <DFT-ENERGY>
-2055.71274945

$$$$
