UFECOYMODN2_A1
  CDK     02152411113D

 73 77  0  0  0  0  0  0  0  0999 V2000
    0.6909   -0.2753   -0.0635 Ru  0  0  0  0  0  0  0  0  0  0  0  0
    2.4687   -0.2753   -1.4527 O   0  0  0  0  0  0  0  0  0  0  0  0
    1.9011   -1.2086    0.9406 C   0  0  0  0  0  0  0  0  0  0  0  0
    1.6683   -1.5015    1.9633 H   0  0  0  0  0  0  0  0  0  0  0  0
    2.7042    0.4999   -2.6785 C   0  0  0  0  0  0  0  0  0  0  0  0
    3.1183   -0.1987   -3.4360 H   0  0  0  0  0  0  0  0  0  0  0  0
    1.2812    0.9345   -2.9990 C   0  0  0  0  0  0  0  0  0  0  0  0
    1.2086    1.4250   -3.9724 H   0  0  0  0  0  0  0  0  0  0  0  0
    0.8907    1.6338   -2.2319 H   0  0  0  0  0  0  0  0  0  0  0  0
    0.5968    0.0599   -2.9986 H   0  0  0  0  0  0  0  0  0  0  0  0
    3.6384    1.6491   -2.3439 C   0  0  0  0  0  0  0  0  0  0  0  0
    3.3158    2.1333   -1.4011 H   0  0  0  0  0  0  0  0  0  0  0  0
    3.6321    2.4192   -3.1216 H   0  0  0  0  0  0  0  0  0  0  0  0
    4.6725    1.3232   -2.1915 H   0  0  0  0  0  0  0  0  0  0  0  0
    3.4609   -1.0737   -0.9477 C   0  0  0  0  0  0  0  0  0  0  0  0
    4.6300   -1.4224   -1.6007 C   0  0  0  0  0  0  0  0  0  0  0  0
    4.8485   -1.0724   -2.6068 H   0  0  0  0  0  0  0  0  0  0  0  0
    5.5312   -2.2535   -0.9432 C   0  0  0  0  0  0  0  0  0  0  0  0
    6.4536   -2.5412   -1.4520 H   0  0  0  0  0  0  0  0  0  0  0  0
    5.2812   -2.7251    0.3421 C   0  0  0  0  0  0  0  0  0  0  0  0
    6.0058   -3.3700    0.8361 H   0  0  0  0  0  0  0  0  0  0  0  0
    4.1115   -2.3648    0.9837 C   0  0  0  0  0  0  0  0  0  0  0  0
    3.9183   -2.7194    1.9950 H   0  0  0  0  0  0  0  0  0  0  0  0
    3.1760   -1.5494    0.3443 C   0  0  0  0  0  0  0  0  0  0  0  0
    1.2810    1.8818    0.4879 Cl  0  0  0  0  0  0  0  0  0  0  0  0
   -0.1435   -2.0046   -1.4413 Cl  0  0  0  0  0  0  0  0  0  0  0  0
   -2.1132    0.4021    0.6348 N   0  0  0  0  0  0  0  0  0  0  0  0
   -1.2410   -0.7247    2.3308 N   0  0  0  0  0  0  0  0  0  0  0  0
   -0.9188   -0.2316    1.0570 C   0  0  0  0  0  0  0  0  0  0  0  0
   -3.1269    0.2919    1.6296 C   0  0  0  0  0  0  0  0  0  0  0  0
   -4.1081    0.7098    1.4954 H   0  0  0  0  0  0  0  0  0  0  0  0
   -2.5886   -0.4052    2.6807 C   0  0  0  0  0  0  0  0  0  0  0  0
   -3.0186   -0.7005    3.6197 H   0  0  0  0  0  0  0  0  0  0  0  0
   -2.3673    1.0902   -0.6104 C   0  0  0  0  0  0  0  0  0  0  0  0
   -2.1455    2.4861   -0.6975 C   0  0  0  0  0  0  0  0  0  0  0  0
   -2.4740    3.1523   -1.8870 C   0  0  0  0  0  0  0  0  0  0  0  0
   -2.3011    4.2241   -1.9592 H   0  0  0  0  0  0  0  0  0  0  0  0
   -3.0175    2.4581   -2.9749 C   0  0  0  0  0  0  0  0  0  0  0  0
   -3.2371    1.0772   -2.8761 C   0  0  0  0  0  0  0  0  0  0  0  0
   -3.6580    0.5355   -3.7210 H   0  0  0  0  0  0  0  0  0  0  0  0
   -2.9200    0.3778   -1.7042 C   0  0  0  0  0  0  0  0  0  0  0  0
   -1.5839    3.2791    0.4332 C   0  0  0  0  0  0  0  0  0  0  0  0
   -2.3062    4.0139    0.8106 H   0  0  0  0  0  0  0  0  0  0  0  0
   -0.6797    3.8295    0.1166 H   0  0  0  0  0  0  0  0  0  0  0  0
   -1.2545    2.6635    1.2846 H   0  0  0  0  0  0  0  0  0  0  0  0
   -3.3752    3.1782   -4.2341 C   0  0  0  0  0  0  0  0  0  0  0  0
   -2.9673    2.6707   -5.1201 H   0  0  0  0  0  0  0  0  0  0  0  0
   -3.0032    4.2109   -4.2552 H   0  0  0  0  0  0  0  0  0  0  0  0
   -4.4669    3.2247   -4.3628 H   0  0  0  0  0  0  0  0  0  0  0  0
   -3.1868   -1.0876   -1.6507 C   0  0  0  0  0  0  0  0  0  0  0  0
   -4.2600   -1.3072   -1.7104 H   0  0  0  0  0  0  0  0  0  0  0  0
   -2.7917   -1.5767   -0.7467 H   0  0  0  0  0  0  0  0  0  0  0  0
   -2.6899   -1.6086   -2.4895 H   0  0  0  0  0  0  0  0  0  0  0  0
   -0.4090   -1.4644    3.2475 C   0  0  0  0  0  0  0  0  0  0  0  0
   -0.3625   -2.8756    3.1615 C   0  0  0  0  0  0  0  0  0  0  0  0
    0.3486   -3.5844    4.1379 C   0  0  0  0  0  0  0  0  0  0  0  0
    0.3791   -4.6712    4.0925 H   0  0  0  0  0  0  0  0  0  0  0  0
    1.0238   -2.9090    5.1640 C   0  0  0  0  0  0  0  0  0  0  0  0
    1.0232   -1.5054    5.1983 C   0  0  0  0  0  0  0  0  0  0  0  0
    1.5783   -0.9852    5.9762 H   0  0  0  0  0  0  0  0  0  0  0  0
    0.3232   -0.7671    4.2385 C   0  0  0  0  0  0  0  0  0  0  0  0
   -1.0242   -3.5806    2.0281 C   0  0  0  0  0  0  0  0  0  0  0  0
   -0.6603   -3.1848    1.0532 H   0  0  0  0  0  0  0  0  0  0  0  0
   -2.1141   -3.4382    2.0337 H   0  0  0  0  0  0  0  0  0  0  0  0
   -0.8328   -4.6607    2.0185 H   0  0  0  0  0  0  0  0  0  0  0  0
    1.7645   -3.6714    6.2132 C   0  0  0  0  0  0  0  0  0  0  0  0
    1.4520   -3.3715    7.2241 H   0  0  0  0  0  0  0  0  0  0  0  0
    2.8476   -3.4902    6.1435 H   0  0  0  0  0  0  0  0  0  0  0  0
    1.6147   -4.7566    6.1395 H   0  0  0  0  0  0  0  0  0  0  0  0
    0.3728    0.7224    4.2260 C   0  0  0  0  0  0  0  0  0  0  0  0
   -0.6179    1.1677    4.3950 H   0  0  0  0  0  0  0  0  0  0  0  0
    0.7219    1.0938    3.2383 H   0  0  0  0  0  0  0  0  0  0  0  0
    1.0540    1.1380    4.9786 H   0  0  0  0  0  0  0  0  0  0  0  0
  1  2  1  0  0  0  0
  1  3  2  0  0  0  0
  3  4  1  0  0  0  0
  2  5  1  0  0  0  0
  5  6  1  0  0  0  0
  5  7  1  0  0  0  0
  7  8  1  0  0  0  0
  7  9  1  0  0  0  0
  7 10  1  0  0  0  0
  5 11  1  0  0  0  0
 11 12  1  0  0  0  0
 11 13  1  0  0  0  0
 11 14  1  0  0  0  0
  2 15  1  0  0  0  0
 15 24  1  0  0  0  0
 15 16  2  0  0  0  0
 16 17  1  0  0  0  0
 16 18  1  0  0  0  0
 18 19  1  0  0  0  0
 18 20  2  0  0  0  0
 20 21  1  0  0  0  0
 20 22  1  0  0  0  0
 22 24  2  0  0  0  0
 22 23  1  0  0  0  0
  3 24  1  0  0  0  0
  1 25  1  0  0  0  0
  1 26  1  0  0  0  0
 27 29  1  0  0  0  0
 28 29  1  0  0  0  0
 27 30  1  0  0  0  0
 30 31  1  0  0  0  0
 28 32  1  0  0  0  0
 32 33  1  0  0  0  0
 27 34  1  0  0  0  0
 34 35  2  0  0  0  0
 35 36  1  0  0  0  0
 36 37  1  0  0  0  0
 36 38  2  0  0  0  0
 38 39  1  0  0  0  0
 39 40  1  0  0  0  0
 34 41  1  0  0  0  0
 35 42  1  0  0  0  0
 42 43  1  0  0  0  0
 42 44  1  0  0  0  0
 42 45  1  0  0  0  0
 38 46  1  0  0  0  0
 46 47  1  0  0  0  0
 46 48  1  0  0  0  0
 46 49  1  0  0  0  0
 41 50  1  0  0  0  0
 50 51  1  0  0  0  0
 50 52  1  0  0  0  0
 50 53  1  0  0  0  0
 28 54  1  0  0  0  0
 54 55  1  0  0  0  0
 55 56  2  0  0  0  0
 56 57  1  0  0  0  0
 56 58  1  0  0  0  0
 58 59  2  0  0  0  0
 59 60  1  0  0  0  0
 54 61  2  0  0  0  0
 55 62  1  0  0  0  0
 62 63  1  0  0  0  0
 62 64  1  0  0  0  0
 62 65  1  0  0  0  0
 58 66  1  0  0  0  0
 66 67  1  0  0  0  0
 66 68  1  0  0  0  0
 66 69  1  0  0  0  0
 61 70  1  0  0  0  0
 70 71  1  0  0  0  0
 70 72  1  0  0  0  0
 70 73  1  0  0  0  0
 30 32  2  0  0  0  0
 39 41  2  0  0  0  0
 59 61  1  0  0  0  0
  1 29  1  0  0  0  0
M  END
> <FrozenCore-PM6_ENERGY>
66.068

> <RMSD_CONF_CG-CS>
0.756417

> <RMSD_CONF_GO-CS>
0.000000

> <UID>


> <freeEnergyA>
-2400.9441669

> <freeEnergyF>
-2400.92860731

> <freeEnergyE>
-2400.9441669

> <freeEnergyC>
-2055.68857572

> <freeEnergyL>
-923.08204614

> <freeEnergyX>
-2134.22385434

> <freeEnergyZ>
-2055.6702848

> <freeEnergyD>
-2055.71274937

> <G_Propene>
-117.738020895

> <G_Ethene>
-78.4716324751

> <G_HoveydaProd>
-502.204109499

> <G_SIMes>
-924.27249048

> <G_HG_RuCl2_SIMes>
-2402.13728523

> <DG_referenceProductionBarrier>
0.01468968

> <hartree_to_kcalmol>
627.49467516

> <DFT_IDENTIFIER>
1708004043830

> <DFT_MACHINE>
158.36.42.38

> <XTB_IDENTIFIER>
NREC

> <XTB_MACHINE>
NREC

> <DE_Synth>
1.6779144864310884

> <DESCRIPTOR_DEFINITION_1>
desc1=( echo "1 * ( e( $hartree_to_kcalmol * ( ( $freeEnergyZ - $freeEnergyD ) - ( $freeEnergyX + 2*$G_Ethene - $freeEnergyD - 2*$G_Propene ) - $DDG_reference_HGII ) / $kT ) ) " | bc -l )

> <DESCRIPTOR_DEFINITION_2>
desc2=$( echo "1 * ( $hartree_to_kcalmol * ( ( $freeEnergyZ - $freeEnergyD ) - ( $freeEnergyX + 2*$G_Ethene - $freeEnergyD - 2*$G_Propene ) ) )" | bc -l )

> <DESCRIPTOR_DEFINITION_3>
desc3=$( echo "1 * $hartree_to_kcalmol * ( $DG_referenceProductionBarrier - ( $freeEnergyX + 2*$G_Ethene - $freeEnergyD - 2*$G_Propene ) )" | bc -l )

> <WEIGHT_DEFINITION_1>
w1=$( echo "1 / ( 1 + e( $hartree_to_kcalmol * ( ( ( $freeEnergyX + 2*$G_Ethene - $freeEnergyD - 2*$G_Propene ) ) - ( $DG_referenceProductionBarrier + $magnitude4 ) ) / $kT ) )" | bc -l )

> <WEIGHT_DEFINITION_2>
w2=$( echo "1 / ( 1 + e( $hartree_to_kcalmol * ( ABS( $freeEnergyC + $G_HoveydaProd - $freeEnergyA - 2*${G_Ethene} - $DG_referencePrecursorStabilityHII ) - ( $DDG_referencePrecursorStability + $magnitude1 ) ) / $kT ) )" | bc -l )

> <WEIGHT_DEFINITION_3>
w3=$( echo "1 / ( 1 + e( $hartree_to_kcalmol * ( ( $freeEnergyE + $G_PCy3 - $G_HI_precursor - $freeEnergyL ) - $magnitude1 ) / $kT ) )" | bc -l )

> <WEIGHT_DEFINITION_4>
w4=$( echo "1 / ( 1 + e( $hartree_to_kcalmol * ( - ( $freeEnergyF - $freeEnergyA ) + $magnitude2 ) / $kT ) )" | bc -l )

> <FITNESS_DEFINITION>
fitness=$( echo "( $desc1 + $desc2 + $desc3 ) * $w1 * $w2 * $w3 * $w4" | bc -l )

> <DESCRIPTOR_1>
.23443433779817047993

> <DESCRIPTOR_2>
13.047308657698267032

> <DESCRIPTOR_3>
.376217569965553800

> <WEIGHT_1>
.99994536704505128008

> <WEIGHT_2>
.99999999627581576419

> <WEIGHT_3>
.99999999981337126437

> <WEIGHT_4>
.99998464591682479059

> <FITNESS>
13.65700464330203917739

$$$$
