
  CDK     08152407233D

 80 85  0  0  0  0  0  0  0  0999 V2000
    1.1323   -3.3844    0.9161 H   0  0  0  0  0  0  0  0  0  0  0  0
    2.3607   -3.4133    0.8515 C   0  0  0  0  0  0  0  0  0  0  0  0
    2.3336   -4.5085    0.6767 H   0  0  0  0  0  0  0  0  0  0  0  0
    2.6707   -2.8191    2.1767 C   0  0  0  0  0  0  0  0  0  0  0  0
    3.6056   -2.2542    2.3054 H   0  0  0  0  0  0  0  0  0  0  0  0
    2.3183   -3.3839    3.0564 H   0  0  0  0  0  0  0  0  0  0  0  0
    1.2079   -1.6440    1.2500 Ru  0  0  0  0  0  0  0  0  0  0  0  0
    2.4920   -2.4129   -0.2403 C   0  0  0  0  0  0  0  0  0  0  0  0
    3.4265   -1.8387   -0.3125 H   0  0  0  0  0  0  0  0  0  0  0  0
    2.0131   -2.6704   -1.2015 H   0  0  0  0  0  0  0  0  0  0  0  0
    2.9405    0.0382    1.3222 Cl  0  0  0  0  0  0  0  0  0  0  0  0
   -0.6189   -2.8425    2.2637 Cl  0  0  0  0  0  0  0  0  0  0  0  0
   -0.6668    0.5545    0.6520 N   0  0  0  0  0  0  0  0  0  0  0  0
   -1.6753    1.5831    1.1877 C   0  0  0  0  0  0  0  0  0  0  0  0
   -1.5305    1.3659    2.7031 C   0  0  0  0  0  0  0  0  0  0  0  0
   -2.3203    0.6681    3.0457 H   0  0  0  0  0  0  0  0  0  0  0  0
   -1.6364    2.3135    3.2617 H   0  0  0  0  0  0  0  0  0  0  0  0
   -0.1448    0.6985    2.9348 C   0  0  0  0  0  0  0  0  0  0  0  0
    0.1251    0.0285    1.5883 C   0  0  0  0  0  0  0  0  0  0  0  0
   -0.1505   -0.2695    4.1509 C   0  0  0  0  0  0  0  0  0  0  0  0
    0.7118   -0.9568    4.0405 H   0  0  0  0  0  0  0  0  0  0  0  0
   -1.0643   -0.8879    4.1853 H   0  0  0  0  0  0  0  0  0  0  0  0
    0.0665    0.6343    5.3774 C   0  0  0  0  0  0  0  0  0  0  0  0
    0.5202    0.0919    6.2303 H   0  0  0  0  0  0  0  0  0  0  0  0
   -0.8958    1.0603    5.7418 H   0  0  0  0  0  0  0  0  0  0  0  0
    0.9532    1.7164    4.8162 C   0  0  0  0  0  0  0  0  0  0  0  0
    1.7704    2.6290    5.4970 C   0  0  0  0  0  0  0  0  0  0  0  0
    1.8437    2.6376    6.5941 H   0  0  0  0  0  0  0  0  0  0  0  0
    2.5366    3.5585    4.7833 C   0  0  0  0  0  0  0  0  0  0  0  0
    2.4764    3.5733    3.3613 C   0  0  0  0  0  0  0  0  0  0  0  0
    1.6489    2.6617    2.6829 C   0  0  0  0  0  0  0  0  0  0  0  0
    1.6461    2.6407    1.5895 H   0  0  0  0  0  0  0  0  0  0  0  0
    0.8945    1.7328    3.4116 C   0  0  0  0  0  0  0  0  0  0  0  0
    3.2992    4.4661    5.4860 O   0  0  0  0  0  0  0  0  0  0  0  0
    4.7167    4.3217    5.3141 C   0  0  0  0  0  0  0  0  0  0  0  0
    5.1819    5.0833    5.9680 H   0  0  0  0  0  0  0  0  0  0  0  0
    5.0531    3.3099    5.6329 H   0  0  0  0  0  0  0  0  0  0  0  0
    5.0234    4.4962    4.2625 H   0  0  0  0  0  0  0  0  0  0  0  0
    3.2663    4.5082    2.7393 O   0  0  0  0  0  0  0  0  0  0  0  0
    3.2616    4.5037    1.3161 C   0  0  0  0  0  0  0  0  0  0  0  0
    3.5840    3.5207    0.9060 H   0  0  0  0  0  0  0  0  0  0  0  0
    2.2549    4.7492    0.9104 H   0  0  0  0  0  0  0  0  0  0  0  0
    3.9777    5.2867    1.0082 H   0  0  0  0  0  0  0  0  0  0  0  0
   -1.2984    2.9938    0.7311 C   0  0  0  0  0  0  0  0  0  0  0  0
   -1.3437    3.0708   -0.3717 H   0  0  0  0  0  0  0  0  0  0  0  0
   -0.2936    3.2908    1.0787 H   0  0  0  0  0  0  0  0  0  0  0  0
   -2.0302    3.7124    1.1498 H   0  0  0  0  0  0  0  0  0  0  0  0
   -3.0927    1.2656    0.7155 C   0  0  0  0  0  0  0  0  0  0  0  0
   -3.7819    2.0082    1.1646 H   0  0  0  0  0  0  0  0  0  0  0  0
   -3.4122    0.2617    1.0464 H   0  0  0  0  0  0  0  0  0  0  0  0
   -3.1890    1.3331   -0.3853 H   0  0  0  0  0  0  0  0  0  0  0  0
   -0.6597    0.2602   -0.7812 C   0  0  0  0  0  0  0  0  0  0  0  0
   -1.5721   -0.6978   -1.3143 C   0  0  0  0  0  0  0  0  0  0  0  0
    0.1585    1.0411   -1.6506 C   0  0  0  0  0  0  0  0  0  0  0  0
   -1.7213   -0.7689   -2.7127 C   0  0  0  0  0  0  0  0  0  0  0  0
   -0.9920    0.0505   -3.5743 C   0  0  0  0  0  0  0  0  0  0  0  0
   -2.4290   -1.4992   -3.1293 H   0  0  0  0  0  0  0  0  0  0  0  0
   -0.0419    0.9206   -3.0390 C   0  0  0  0  0  0  0  0  0  0  0  0
    0.5802    1.5244   -3.7146 H   0  0  0  0  0  0  0  0  0  0  0  0
   -1.1412   -0.0107   -4.6620 H   0  0  0  0  0  0  0  0  0  0  0  0
   -2.3147   -1.7445   -0.4932 C   0  0  0  0  0  0  0  0  0  0  0  0
   -2.1316   -1.5563    0.5819 H   0  0  0  0  0  0  0  0  0  0  0  0
   -1.7171   -3.1293   -0.8185 C   0  0  0  0  0  0  0  0  0  0  0  0
   -1.9464   -3.4224   -1.8639 H   0  0  0  0  0  0  0  0  0  0  0  0
   -2.1281   -3.8972   -0.1350 H   0  0  0  0  0  0  0  0  0  0  0  0
   -0.6170   -3.1215   -0.6921 H   0  0  0  0  0  0  0  0  0  0  0  0
   -3.8310   -1.7771   -0.7517 C   0  0  0  0  0  0  0  0  0  0  0  0
   -4.3167   -0.7970   -0.5867 H   0  0  0  0  0  0  0  0  0  0  0  0
   -4.3095   -2.5157   -0.0775 H   0  0  0  0  0  0  0  0  0  0  0  0
   -4.0594   -2.0900   -1.7912 H   0  0  0  0  0  0  0  0  0  0  0  0
    1.3214    1.9193   -1.2035 C   0  0  0  0  0  0  0  0  0  0  0  0
    1.3725    1.8879   -0.0994 H   0  0  0  0  0  0  0  0  0  0  0  0
    1.2061    3.3778   -1.6785 C   0  0  0  0  0  0  0  0  0  0  0  0
    1.1579    3.4364   -2.7851 H   0  0  0  0  0  0  0  0  0  0  0  0
    2.1021    3.9503   -1.3653 H   0  0  0  0  0  0  0  0  0  0  0  0
    0.3141    3.8940   -1.2776 H   0  0  0  0  0  0  0  0  0  0  0  0
    2.6377    1.3148   -1.7320 C   0  0  0  0  0  0  0  0  0  0  0  0
    2.7264    0.2504   -1.4520 H   0  0  0  0  0  0  0  0  0  0  0  0
    3.5064    1.8472   -1.2956 H   0  0  0  0  0  0  0  0  0  0  0  0
    2.6975    1.4036   -2.8366 H   0  0  0  0  0  0  0  0  0  0  0  0
  1  2  1  0  0  0  0
  1  7  1  0  0  0  0
  2  3  1  0  0  0  0
  2  4  1  0  0  0  0
  4  5  1  0  0  0  0
  4  6  1  0  0  0  0
  7  8  1  0  0  0  0
  4  7  1  0  0  0  0
  2  8  1  0  0  0  0
  8  9  1  0  0  0  0
  8 10  1  0  0  0  0
  7 11  1  0  0  0  0
  7 12  1  0  0  0  0
 13 14  1  0  0  0  0
 13 52  1  0  0  0  0
 14 15  1  0  0  0  0
 14 44  1  0  0  0  0
 14 48  1  0  0  0  0
 15 16  1  0  0  0  0
 15 17  1  0  0  0  0
 15 18  1  0  0  0  0
 18 19  1  0  0  0  0
 18 20  1  0  0  0  0
 18 33  1  0  0  0  0
 13 19  1  0  0  0  0
 20 21  1  0  0  0  0
 20 22  1  0  0  0  0
 20 23  1  0  0  0  0
 23 24  1  0  0  0  0
 23 25  1  0  0  0  0
 23 26  1  0  0  0  0
 26 27  2  0  0  0  0
 26 33  1  0  0  0  0
 27 28  1  0  0  0  0
 27 29  1  0  0  0  0
 29 30  2  0  0  0  0
 29 34  1  0  0  0  0
 30 31  1  0  0  0  0
 30 39  1  0  0  0  0
 31 32  1  0  0  0  0
 31 33  2  0  0  0  0
 34 35  1  0  0  0  0
 35 36  1  0  0  0  0
 35 37  1  0  0  0  0
 35 38  1  0  0  0  0
 39 40  1  0  0  0  0
 40 41  1  0  0  0  0
 40 42  1  0  0  0  0
 40 43  1  0  0  0  0
 44 45  1  0  0  0  0
 44 46  1  0  0  0  0
 44 47  1  0  0  0  0
 48 49  1  0  0  0  0
 48 50  1  0  0  0  0
 48 51  1  0  0  0  0
 52 53  2  0  0  0  0
 52 54  1  0  0  0  0
 53 55  1  0  0  0  0
 53 61  1  0  0  0  0
 54 58  2  0  0  0  0
 54 71  1  0  0  0  0
 55 56  2  0  0  0  0
 55 57  1  0  0  0  0
 56 58  1  0  0  0  0
 56 60  1  0  0  0  0
 58 59  1  0  0  0  0
 61 62  1  0  0  0  0
 61 63  1  0  0  0  0
 61 67  1  0  0  0  0
 63 64  1  0  0  0  0
 63 65  1  0  0  0  0
 63 66  1  0  0  0  0
 67 68  1  0  0  0  0
 67 69  1  0  0  0  0
 67 70  1  0  0  0  0
 71 72  1  0  0  0  0
 71 73  1  0  0  0  0
 71 77  1  0  0  0  0
 73 74  1  0  0  0  0
 73 75  1  0  0  0  0
 73 76  1  0  0  0  0
 77 78  1  0  0  0  0
 77 79  1  0  0  0  0
 77 80  1  0  0  0  0
  7 19  1  0  0  0  0
M  END
>  <DFT-ENERGY>
-2425.45749089

$$$$
