
  CDK     08142419253D

 86 90  0  0  0  0  0  0  0  0999 V2000
    0.5542    3.3031   -2.0793 C   0  0  0  0  0  0  0  0  0  0  0  0
    1.6174    3.0647   -2.2573 H   0  0  0  0  0  0  0  0  0  0  0  0
    0.2902    4.2394   -2.6212 H   0  0  0  0  0  0  0  0  0  0  0  0
   -0.0655    2.4977   -2.5142 H   0  0  0  0  0  0  0  0  0  0  0  0
    0.2508    3.5025   -0.6168 C   0  0  0  0  0  0  0  0  0  0  0  0
   -0.8003    3.7468   -0.3768 H   0  0  0  0  0  0  0  0  0  0  0  0
    1.2020    3.9803    0.3197 C   0  0  0  0  0  0  0  0  0  0  0  0
    2.2570    3.9679   -0.0066 H   0  0  0  0  0  0  0  0  0  0  0  0
    0.8011    4.9761    1.3826 C   0  0  0  0  0  0  0  0  0  0  0  0
    1.5616    5.0851    2.1784 H   0  0  0  0  0  0  0  0  0  0  0  0
    0.6770    5.9694    0.8994 H   0  0  0  0  0  0  0  0  0  0  0  0
   -0.1694    4.6924    1.8354 H   0  0  0  0  0  0  0  0  0  0  0  0
    1.6330    2.3043    1.8660 C   0  0  0  0  0  0  0  0  0  0  0  0
    1.1943    2.7749    2.7711 H   0  0  0  0  0  0  0  0  0  0  0  0
    2.7421    2.2496    1.8164 H   0  0  0  0  0  0  0  0  0  0  0  0
    0.5849    1.6166    0.5284 Ru  0  0  0  0  0  0  0  0  0  0  0  0
   -1.4274    2.2650    1.6644 Cl  0  0  0  0  0  0  0  0  0  0  0  0
    2.5859    1.1367   -0.7303 Cl  0  0  0  0  0  0  0  0  0  0  0  0
    0.7195   -1.2414    1.5483 N   0  0  0  0  0  0  0  0  0  0  0  0
    0.2210   -2.6424    1.1796 C   0  0  0  0  0  0  0  0  0  0  0  0
   -0.3146   -2.3815   -0.2357 C   0  0  0  0  0  0  0  0  0  0  0  0
   -1.1387   -3.0669   -0.5092 H   0  0  0  0  0  0  0  0  0  0  0  0
    0.5067   -2.5237   -0.9657 H   0  0  0  0  0  0  0  0  0  0  0  0
   -0.7548   -0.9050   -0.2501 C   0  0  0  0  0  0  0  0  0  0  0  0
    0.2361   -0.2813    0.7444 C   0  0  0  0  0  0  0  0  0  0  0  0
   -2.2409   -0.6863    0.2326 C   0  0  0  0  0  0  0  0  0  0  0  0
   -2.2831   -0.2972    1.2670 H   0  0  0  0  0  0  0  0  0  0  0  0
   -2.7526   -1.6686    0.2097 H   0  0  0  0  0  0  0  0  0  0  0  0
   -2.9155    0.2988   -0.7514 C   0  0  0  0  0  0  0  0  0  0  0  0
   -3.0027    1.3018   -0.2831 H   0  0  0  0  0  0  0  0  0  0  0  0
   -3.9363   -0.0289   -1.0345 H   0  0  0  0  0  0  0  0  0  0  0  0
   -1.9780    0.3453   -1.9291 C   0  0  0  0  0  0  0  0  0  0  0  0
   -2.1820    0.9020   -3.2021 C   0  0  0  0  0  0  0  0  0  0  0  0
   -3.1282    1.3866   -3.4824 H   0  0  0  0  0  0  0  0  0  0  0  0
   -1.1692    0.8409   -4.1689 C   0  0  0  0  0  0  0  0  0  0  0  0
    0.0820    0.2294   -3.8547 C   0  0  0  0  0  0  0  0  0  0  0  0
    0.2800   -0.3320   -2.5841 C   0  0  0  0  0  0  0  0  0  0  0  0
    1.2433   -0.7801   -2.3165 H   0  0  0  0  0  0  0  0  0  0  0  0
   -0.7520   -0.2704   -1.6340 C   0  0  0  0  0  0  0  0  0  0  0  0
   -1.4277    1.3405   -5.4262 O   0  0  0  0  0  0  0  0  0  0  0  0
   -0.6579    2.4983   -5.7829 C   0  0  0  0  0  0  0  0  0  0  0  0
   -0.9668    2.7651   -6.8110 H   0  0  0  0  0  0  0  0  0  0  0  0
   -0.8848    3.3485   -5.1011 H   0  0  0  0  0  0  0  0  0  0  0  0
    0.4311    2.2898   -5.7635 H   0  0  0  0  0  0  0  0  0  0  0  0
    1.0247    0.2426   -4.8481 O   0  0  0  0  0  0  0  0  0  0  0  0
    2.3177   -0.2586   -4.5029 C   0  0  0  0  0  0  0  0  0  0  0  0
    2.7352    0.2703   -3.6185 H   0  0  0  0  0  0  0  0  0  0  0  0
    2.2849   -1.3504   -4.2908 H   0  0  0  0  0  0  0  0  0  0  0  0
    2.9537   -0.0806   -5.3885 H   0  0  0  0  0  0  0  0  0  0  0  0
    1.3495   -3.6686    1.1684 C   0  0  0  0  0  0  0  0  0  0  0  0
    1.8097   -3.7828    2.1686 H   0  0  0  0  0  0  0  0  0  0  0  0
    2.1332   -3.4002    0.4386 H   0  0  0  0  0  0  0  0  0  0  0  0
    0.9285   -4.6505    0.8734 H   0  0  0  0  0  0  0  0  0  0  0  0
   -0.8618   -3.1038    2.1604 C   0  0  0  0  0  0  0  0  0  0  0  0
   -1.2609   -4.0829    1.8292 H   0  0  0  0  0  0  0  0  0  0  0  0
   -1.7015   -2.3905    2.2285 H   0  0  0  0  0  0  0  0  0  0  0  0
   -0.4312   -3.2397    3.1704 H   0  0  0  0  0  0  0  0  0  0  0  0
    1.4999   -1.0624    2.7628 C   0  0  0  0  0  0  0  0  0  0  0  0
    0.8254   -0.7729    3.9870 C   0  0  0  0  0  0  0  0  0  0  0  0
    2.9085   -1.2848    2.7437 C   0  0  0  0  0  0  0  0  0  0  0  0
    1.5683   -0.8266    5.1823 C   0  0  0  0  0  0  0  0  0  0  0  0
    2.9316   -1.1242    5.1887 C   0  0  0  0  0  0  0  0  0  0  0  0
    1.0552   -0.6192    6.1320 H   0  0  0  0  0  0  0  0  0  0  0  0
    3.5914   -1.3209    3.9750 C   0  0  0  0  0  0  0  0  0  0  0  0
    4.6755   -1.5018    3.9720 H   0  0  0  0  0  0  0  0  0  0  0  0
    3.4853   -1.1751    6.1376 H   0  0  0  0  0  0  0  0  0  0  0  0
   -0.6294   -0.3250    4.1029 C   0  0  0  0  0  0  0  0  0  0  0  0
   -1.0680   -0.2773    3.0881 H   0  0  0  0  0  0  0  0  0  0  0  0
   -0.6882    1.0986    4.6901 C   0  0  0  0  0  0  0  0  0  0  0  0
   -0.3362    1.1085    5.7425 H   0  0  0  0  0  0  0  0  0  0  0  0
   -1.7290    1.4763    4.6676 H   0  0  0  0  0  0  0  0  0  0  0  0
   -0.0747    1.8031    4.1025 H   0  0  0  0  0  0  0  0  0  0  0  0
   -1.4835   -1.2529    4.9866 C   0  0  0  0  0  0  0  0  0  0  0  0
   -1.4848   -2.3030    4.6422 H   0  0  0  0  0  0  0  0  0  0  0  0
   -2.5335   -0.8965    5.0016 H   0  0  0  0  0  0  0  0  0  0  0  0
   -1.1211   -1.2465    6.0353 H   0  0  0  0  0  0  0  0  0  0  0  0
    3.7598   -1.4008    1.4820 C   0  0  0  0  0  0  0  0  0  0  0  0
    3.0920   -1.3371    0.6004 H   0  0  0  0  0  0  0  0  0  0  0  0
    4.5850   -2.7006    1.4239 C   0  0  0  0  0  0  0  0  0  0  0  0
    5.3535   -2.7190    2.2239 H   0  0  0  0  0  0  0  0  0  0  0  0
    5.1235   -2.7625    0.4564 H   0  0  0  0  0  0  0  0  0  0  0  0
    3.9724   -3.6138    1.5350 H   0  0  0  0  0  0  0  0  0  0  0  0
    4.7316   -0.2066    1.4048 C   0  0  0  0  0  0  0  0  0  0  0  0
    4.1928    0.7557    1.4447 H   0  0  0  0  0  0  0  0  0  0  0  0
    5.2859   -0.2290    0.4454 H   0  0  0  0  0  0  0  0  0  0  0  0
    5.4704   -0.2439    2.2322 H   0  0  0  0  0  0  0  0  0  0  0  0
  1  2  1  0  0  0  0
  1  5  1  0  0  0  0
  1  3  1  0  0  0  0
  1  4  1  0  0  0  0
  5  6  1  0  0  0  0
  5 16  1  0  0  0  0
  5  7  1  0  0  0  0
  7  9  1  0  0  0  0
  7  8  1  0  0  0  0
  9 10  1  0  0  0  0
  9 11  1  0  0  0  0
  9 12  1  0  0  0  0
 13 14  1  0  0  0  0
 13 15  1  0  0  0  0
  7 13  1  0  0  0  0
 13 16  1  0  0  0  0
 16 17  1  0  0  0  0
 16 18  1  0  0  0  0
 19 20  1  0  0  0  0
 19 58  1  0  0  0  0
 20 21  1  0  0  0  0
 20 50  1  0  0  0  0
 20 54  1  0  0  0  0
 21 22  1  0  0  0  0
 21 23  1  0  0  0  0
 21 24  1  0  0  0  0
 24 25  1  0  0  0  0
 24 26  1  0  0  0  0
 24 39  1  0  0  0  0
 19 25  1  0  0  0  0
 26 27  1  0  0  0  0
 26 28  1  0  0  0  0
 26 29  1  0  0  0  0
 29 30  1  0  0  0  0
 29 31  1  0  0  0  0
 29 32  1  0  0  0  0
 32 33  2  0  0  0  0
 32 39  1  0  0  0  0
 33 34  1  0  0  0  0
 33 35  1  0  0  0  0
 35 36  2  0  0  0  0
 35 40  1  0  0  0  0
 36 37  1  0  0  0  0
 36 45  1  0  0  0  0
 37 38  1  0  0  0  0
 37 39  2  0  0  0  0
 40 41  1  0  0  0  0
 41 42  1  0  0  0  0
 41 43  1  0  0  0  0
 41 44  1  0  0  0  0
 45 46  1  0  0  0  0
 46 47  1  0  0  0  0
 46 48  1  0  0  0  0
 46 49  1  0  0  0  0
 50 51  1  0  0  0  0
 50 52  1  0  0  0  0
 50 53  1  0  0  0  0
 54 55  1  0  0  0  0
 54 56  1  0  0  0  0
 54 57  1  0  0  0  0
 58 59  2  0  0  0  0
 58 60  1  0  0  0  0
 59 61  1  0  0  0  0
 59 67  1  0  0  0  0
 60 64  2  0  0  0  0
 60 77  1  0  0  0  0
 61 62  2  0  0  0  0
 61 63  1  0  0  0  0
 62 64  1  0  0  0  0
 62 66  1  0  0  0  0
 64 65  1  0  0  0  0
 67 68  1  0  0  0  0
 67 69  1  0  0  0  0
 67 73  1  0  0  0  0
 69 70  1  0  0  0  0
 69 71  1  0  0  0  0
 69 72  1  0  0  0  0
 73 74  1  0  0  0  0
 73 75  1  0  0  0  0
 73 76  1  0  0  0  0
 77 78  1  0  0  0  0
 77 79  1  0  0  0  0
 77 83  1  0  0  0  0
 79 80  1  0  0  0  0
 79 81  1  0  0  0  0
 79 82  1  0  0  0  0
 83 84  1  0  0  0  0
 83 85  1  0  0  0  0
 83 86  1  0  0  0  0
 16 25  1  0  0  0  0
M  END
>  <DFT-ENERGY>
-2504.02185588

$$$$
