
  CDK     08142423203D

 79 83  0  0  0  0  0  0  0  0999 V2000
   -1.2472    3.1410    1.3674 H   0  0  0  0  0  0  0  0  0  0  0  0
   -2.4506    3.0462    1.6060 C   0  0  0  0  0  0  0  0  0  0  0  0
   -2.4717    4.1202    1.8876 H   0  0  0  0  0  0  0  0  0  0  0  0
   -2.9353    2.5416    0.2883 C   0  0  0  0  0  0  0  0  0  0  0  0
   -3.8408    1.9147    0.2789 H   0  0  0  0  0  0  0  0  0  0  0  0
   -2.8102    3.2212   -0.5715 H   0  0  0  0  0  0  0  0  0  0  0  0
   -1.2531    1.4513    0.8275 Ru  0  0  0  0  0  0  0  0  0  0  0  0
   -2.3388    1.9492    2.5894 C   0  0  0  0  0  0  0  0  0  0  0  0
   -3.1905    1.2713    2.7294 H   0  0  0  0  0  0  0  0  0  0  0  0
   -1.7156    2.1335    3.4816 H   0  0  0  0  0  0  0  0  0  0  0  0
   -2.7572   -0.4546    0.9985 Cl  0  0  0  0  0  0  0  0  0  0  0  0
    0.1423    2.9040   -0.4428 Cl  0  0  0  0  0  0  0  0  0  0  0  0
   -0.2052   -0.0787   -0.0500 C   0  0  0  0  0  0  0  0  0  0  0  0
    0.0887   -0.4368   -1.3196 N   0  0  0  0  0  0  0  0  0  0  0  0
    0.7902   -1.7422   -1.3450 C   0  0  0  0  0  0  0  0  0  0  0  0
    1.3113   -1.8697    0.0908 C   0  0  0  0  0  0  0  0  0  0  0  0
    0.4274   -0.9270    0.8028 N   0  0  0  0  0  0  0  0  0  0  0  0
    0.0574   -2.5387   -1.5986 H   0  0  0  0  0  0  0  0  0  0  0  0
    1.5921   -1.7440   -2.1033 H   0  0  0  0  0  0  0  0  0  0  0  0
    2.3709   -1.5477    0.1875 H   0  0  0  0  0  0  0  0  0  0  0  0
    1.2130   -2.8932    0.4952 H   0  0  0  0  0  0  0  0  0  0  0  0
   -0.2394    0.2511   -2.5403 C   0  0  0  0  0  0  0  0  0  0  0  0
   -0.8124    1.5548   -4.9416 C   0  0  0  0  0  0  0  0  0  0  0  0
    0.7915    0.9797   -3.1910 C   0  0  0  0  0  0  0  0  0  0  0  0
   -1.5380    0.1349   -3.0887 C   0  0  0  0  0  0  0  0  0  0  0  0
   -1.8036    0.8115   -4.2944 C   0  0  0  0  0  0  0  0  0  0  0  0
    0.4750    1.6263   -4.3977 C   0  0  0  0  0  0  0  0  0  0  0  0
   -2.8083    0.7425   -4.7350 H   0  0  0  0  0  0  0  0  0  0  0  0
    1.2525    2.2049   -4.9165 H   0  0  0  0  0  0  0  0  0  0  0  0
   -1.0411    2.0769   -5.8823 H   0  0  0  0  0  0  0  0  0  0  0  0
    2.2198    1.0335   -2.6613 C   0  0  0  0  0  0  0  0  0  0  0  0
    2.1998    0.6746   -1.6118 H   0  0  0  0  0  0  0  0  0  0  0  0
    2.8075    2.4533   -2.6451 C   0  0  0  0  0  0  0  0  0  0  0  0
    2.9332    2.8552   -3.6716 H   0  0  0  0  0  0  0  0  0  0  0  0
    3.8123    2.4408   -2.1749 H   0  0  0  0  0  0  0  0  0  0  0  0
    2.1624    3.1439   -2.0718 H   0  0  0  0  0  0  0  0  0  0  0  0
    3.1323    0.1036   -3.4869 C   0  0  0  0  0  0  0  0  0  0  0  0
    2.7467   -0.9348   -3.5411 H   0  0  0  0  0  0  0  0  0  0  0  0
    4.1548    0.0710   -3.0572 H   0  0  0  0  0  0  0  0  0  0  0  0
    3.2158    0.4698   -4.5312 H   0  0  0  0  0  0  0  0  0  0  0  0
   -2.6049   -0.7451   -2.4599 C   0  0  0  0  0  0  0  0  0  0  0  0
   -2.3003   -0.9704   -1.4205 H   0  0  0  0  0  0  0  0  0  0  0  0
   -3.9682   -0.0465   -2.3702 C   0  0  0  0  0  0  0  0  0  0  0  0
   -4.4206    0.1194   -3.3704 H   0  0  0  0  0  0  0  0  0  0  0  0
   -3.8745    0.9321   -1.8628 H   0  0  0  0  0  0  0  0  0  0  0  0
   -4.6716   -0.6665   -1.7799 H   0  0  0  0  0  0  0  0  0  0  0  0
   -2.7149   -2.0735   -3.2313 C   0  0  0  0  0  0  0  0  0  0  0  0
   -3.4554   -2.7434   -2.7480 H   0  0  0  0  0  0  0  0  0  0  0  0
   -1.7429   -2.6071   -3.2707 H   0  0  0  0  0  0  0  0  0  0  0  0
   -3.0404   -1.9036   -4.2794 H   0  0  0  0  0  0  0  0  0  0  0  0
    0.4475   -0.6582    2.2168 C   0  0  0  0  0  0  0  0  0  0  0  0
    0.2943   -0.0168    4.9284 C   0  0  0  0  0  0  0  0  0  0  0  0
    1.1646    0.4756    2.6959 C   0  0  0  0  0  0  0  0  0  0  0  0
   -0.2673   -1.5216    3.0877 C   0  0  0  0  0  0  0  0  0  0  0  0
   -0.3317   -1.1732    4.4468 C   0  0  0  0  0  0  0  0  0  0  0  0
    1.0472    0.7854    4.0663 C   0  0  0  0  0  0  0  0  0  0  0  0
   -0.8959   -1.8137    5.1386 H   0  0  0  0  0  0  0  0  0  0  0  0
    1.5745    1.6632    4.4632 H   0  0  0  0  0  0  0  0  0  0  0  0
    0.2126    0.2481    5.9929 H   0  0  0  0  0  0  0  0  0  0  0  0
    2.1677    1.2357    1.8333 C   0  0  0  0  0  0  0  0  0  0  0  0
    1.8292    1.2017    0.7793 H   0  0  0  0  0  0  0  0  0  0  0  0
    3.5432    0.5430    1.9272 C   0  0  0  0  0  0  0  0  0  0  0  0
    3.9383    0.5952    2.9632 H   0  0  0  0  0  0  0  0  0  0  0  0
    4.2742    1.0385    1.2556 H   0  0  0  0  0  0  0  0  0  0  0  0
    3.4912   -0.5290    1.6509 H   0  0  0  0  0  0  0  0  0  0  0  0
    2.3015    2.7174    2.2058 C   0  0  0  0  0  0  0  0  0  0  0  0
    1.3141    3.2158    2.2239 H   0  0  0  0  0  0  0  0  0  0  0  0
    2.9212    3.2387    1.4506 H   0  0  0  0  0  0  0  0  0  0  0  0
    2.7931    2.8541    3.1915 H   0  0  0  0  0  0  0  0  0  0  0  0
   -0.8956   -2.8165    2.5944 C   0  0  0  0  0  0  0  0  0  0  0  0
   -1.0474   -2.7050    1.5021 H   0  0  0  0  0  0  0  0  0  0  0  0
    0.0667   -3.9924    2.8595 C   0  0  0  0  0  0  0  0  0  0  0  0
   -0.3399   -4.9352    2.4391 H   0  0  0  0  0  0  0  0  0  0  0  0
    0.2097   -4.1411    3.9502 H   0  0  0  0  0  0  0  0  0  0  0  0
    1.0716   -3.8222    2.4222 H   0  0  0  0  0  0  0  0  0  0  0  0
   -2.2686   -3.1032    3.2175 C   0  0  0  0  0  0  0  0  0  0  0  0
   -2.7200   -3.9963    2.7400 H   0  0  0  0  0  0  0  0  0  0  0  0
   -2.9517   -2.2464    3.0679 H   0  0  0  0  0  0  0  0  0  0  0  0
   -2.1928   -3.3198    4.3034 H   0  0  0  0  0  0  0  0  0  0  0  0
  1  2  1  0  0  0  0
  1  7  1  0  0  0  0
  2  3  1  0  0  0  0
  2  4  1  0  0  0  0
  4  5  1  0  0  0  0
  6  4  1  0  0  0  0
  7  8  1  0  0  0  0
  7  4  1  0  0  0  0
  8  2  1  0  0  0  0
  8  9  1  0  0  0  0
 10  8  1  0  0  0  0
  7 11  1  0  0  0  0
  7 12  1  0  0  0  0
 13 14  1  0  0  0  0
 13 17  1  0  0  0  0
 14 15  1  0  0  0  0
 15 18  1  0  0  0  0
 15 19  1  0  0  0  0
 15 16  1  0  0  0  0
 16 20  1  0  0  0  0
 16 21  1  0  0  0  0
 16 17  1  0  0  0  0
 22 25  2  0  0  0  0
 22 24  1  0  0  0  0
 23 26  2  0  0  0  0
 23 27  1  0  0  0  0
 23 30  1  0  0  0  0
 24 27  2  0  0  0  0
 25 26  1  0  0  0  0
 26 28  1  0  0  0  0
 27 29  1  0  0  0  0
 14 22  1  0  0  0  0
 31 32  1  0  0  0  0
 31 33  1  0  0  0  0
 31 37  1  0  0  0  0
 33 34  1  0  0  0  0
 33 35  1  0  0  0  0
 33 36  1  0  0  0  0
 37 38  1  0  0  0  0
 37 39  1  0  0  0  0
 37 40  1  0  0  0  0
 24 31  1  0  0  0  0
 41 42  1  0  0  0  0
 41 43  1  0  0  0  0
 41 47  1  0  0  0  0
 43 44  1  0  0  0  0
 43 45  1  0  0  0  0
 43 46  1  0  0  0  0
 47 48  1  0  0  0  0
 47 49  1  0  0  0  0
 47 50  1  0  0  0  0
 25 41  1  0  0  0  0
 51 54  2  0  0  0  0
 51 53  1  0  0  0  0
 52 55  2  0  0  0  0
 52 56  1  0  0  0  0
 52 59  1  0  0  0  0
 53 56  2  0  0  0  0
 54 55  1  0  0  0  0
 55 57  1  0  0  0  0
 56 58  1  0  0  0  0
 17 51  1  0  0  0  0
 60 61  1  0  0  0  0
 60 62  1  0  0  0  0
 60 66  1  0  0  0  0
 62 63  1  0  0  0  0
 62 64  1  0  0  0  0
 62 65  1  0  0  0  0
 66 67  1  0  0  0  0
 66 68  1  0  0  0  0
 66 69  1  0  0  0  0
 53 60  1  0  0  0  0
 70 71  1  0  0  0  0
 70 72  1  0  0  0  0
 70 76  1  0  0  0  0
 72 73  1  0  0  0  0
 72 74  1  0  0  0  0
 72 75  1  0  0  0  0
 76 77  1  0  0  0  0
 76 78  1  0  0  0  0
 76 79  1  0  0  0  0
 54 70  1  0  0  0  0
  7 13  1  0  0  0  0
M  END
>  <DFT-ENERGY>
-2292.41906577

$$$$
