DIPP-5_A1
  CDK     08132410313D

 93 97  0  0  0  0  0  0  0  0999 V2000
    1.2388    0.2654   -0.4221 Ru  0  0  0  0  0  0  0  0  0  0  0  0
    3.0166    1.6546   -0.4221 O   0  0  0  0  0  0  0  0  0  0  0  0
    2.4490   -0.7387   -1.3554 C   0  0  0  0  0  0  0  0  0  0  0  0
    2.2162   -1.7614   -1.6483 H   0  0  0  0  0  0  0  0  0  0  0  0
    3.2521    2.8804    0.3531 C   0  0  0  0  0  0  0  0  0  0  0  0
    3.6616    3.6391   -0.3468 H   0  0  0  0  0  0  0  0  0  0  0  0
    1.8290    3.1952    0.7922 C   0  0  0  0  0  0  0  0  0  0  0  0
    1.1424    3.1978   -0.0799 H   0  0  0  0  0  0  0  0  0  0  0  0
    1.7555    4.1658    1.2885 H   0  0  0  0  0  0  0  0  0  0  0  0
    1.4432    2.4245    1.4910 H   0  0  0  0  0  0  0  0  0  0  0  0
    4.1896    2.5481    1.4998 C   0  0  0  0  0  0  0  0  0  0  0  0
    4.1834    3.3258    2.2700 H   0  0  0  0  0  0  0  0  0  0  0  0
    5.2234    2.3978    1.1720 H   0  0  0  0  0  0  0  0  0  0  0  0
    3.8699    1.6048    1.9856 H   0  0  0  0  0  0  0  0  0  0  0  0
    4.0088    1.1496   -1.2205 C   0  0  0  0  0  0  0  0  0  0  0  0
    5.1780    1.8025   -1.5691 C   0  0  0  0  0  0  0  0  0  0  0  0
    5.3972    2.8084   -1.2185 H   0  0  0  0  0  0  0  0  0  0  0  0
    6.0792    1.1450   -2.4002 C   0  0  0  0  0  0  0  0  0  0  0  0
    7.0019    1.6537   -2.6875 H   0  0  0  0  0  0  0  0  0  0  0  0
    5.8291   -0.1402   -2.8719 C   0  0  0  0  0  0  0  0  0  0  0  0
    6.5540   -0.6346   -3.5164 H   0  0  0  0  0  0  0  0  0  0  0  0
    4.6594   -0.7818   -2.5116 C   0  0  0  0  0  0  0  0  0  0  0  0
    4.4662   -1.7931   -2.8662 H   0  0  0  0  0  0  0  0  0  0  0  0
    3.7239   -0.1424   -1.6962 C   0  0  0  0  0  0  0  0  0  0  0  0
    1.8344   -0.2911    1.7553 Cl  0  0  0  0  0  0  0  0  0  0  0  0
    0.4063    1.6400   -2.1474 Cl  0  0  0  0  0  0  0  0  0  0  0  0
   -0.3774   -0.8718   -0.4541 C   0  0  0  0  0  0  0  0  0  0  0  0
   -0.7016   -2.0367   -1.1502 N   0  0  0  0  0  0  0  0  0  0  0  0
   -2.1407   -2.4621   -0.9926 C   0  0  0  0  0  0  0  0  0  0  0  0
   -2.7077   -1.4305   -0.0075 C   0  0  0  0  0  0  0  0  0  0  0  0
   -1.5411   -0.5116    0.2386 N   0  0  0  0  0  0  0  0  0  0  0  0
   -2.6484   -2.4369   -1.9787 H   0  0  0  0  0  0  0  0  0  0  0  0
   -2.1965   -3.5003   -0.6085 H   0  0  0  0  0  0  0  0  0  0  0  0
   -3.0398   -1.8855    0.9570 H   0  0  0  0  0  0  0  0  0  0  0  0
   -3.5649   -0.8520   -0.4266 H   0  0  0  0  0  0  0  0  0  0  0  0
    0.1108   -2.8920   -1.9856 C   0  0  0  0  0  0  0  0  0  0  0  0
    1.5272   -4.6503   -3.6276 C   0  0  0  0  0  0  0  0  0  0  0  0
    0.7005   -4.0499   -1.4196 C   0  0  0  0  0  0  0  0  0  0  0  0
    0.2383   -2.6036   -3.3637 C   0  0  0  0  0  0  0  0  0  0  0  0
    0.9481   -3.5052   -4.1718 C   0  0  0  0  0  0  0  0  0  0  0  0
    1.4135   -4.9133   -2.2610 C   0  0  0  0  0  0  0  0  0  0  0  0
    1.0500   -3.3000   -5.2374 H   0  0  0  0  0  0  0  0  0  0  0  0
    1.8888   -5.8010   -1.8437 H   0  0  0  0  0  0  0  0  0  0  0  0
    2.0755   -5.3398   -4.2684 H   0  0  0  0  0  0  0  0  0  0  0  0
    0.6195   -4.3366    0.0706 C   0  0  0  0  0  0  0  0  0  0  0  0
   -0.2713   -3.8123    0.5055 H   0  0  0  0  0  0  0  0  0  0  0  0
    1.8712   -3.7679    0.7484 C   0  0  0  0  0  0  0  0  0  0  0  0
    2.7921   -4.2194    0.3676 H   0  0  0  0  0  0  0  0  0  0  0  0
    1.8477   -3.9228    1.8326 H   0  0  0  0  0  0  0  0  0  0  0  0
    1.9476   -2.6760    0.5903 H   0  0  0  0  0  0  0  0  0  0  0  0
    0.4492   -5.8320    0.3668 C   0  0  0  0  0  0  0  0  0  0  0  0
   -0.3865   -6.2606   -0.1959 H   0  0  0  0  0  0  0  0  0  0  0  0
    0.2552   -5.9964    1.4329 H   0  0  0  0  0  0  0  0  0  0  0  0
    1.3481   -6.4063    0.1149 H   0  0  0  0  0  0  0  0  0  0  0  0
   -0.3410   -1.3433   -3.9831 C   0  0  0  0  0  0  0  0  0  0  0  0
   -0.8293   -0.7156   -3.1870 H   0  0  0  0  0  0  0  0  0  0  0  0
    0.7822   -0.4881   -4.5811 C   0  0  0  0  0  0  0  0  0  0  0  0
    1.2792   -0.9650   -5.4279 H   0  0  0  0  0  0  0  0  0  0  0  0
    1.5432   -0.2578   -3.8159 H   0  0  0  0  0  0  0  0  0  0  0  0
    0.3945    0.4842   -4.9129 H   0  0  0  0  0  0  0  0  0  0  0  0
   -1.4045   -1.7011   -5.0290 C   0  0  0  0  0  0  0  0  0  0  0  0
   -1.8794   -0.7942   -5.4216 H   0  0  0  0  0  0  0  0  0  0  0  0
   -2.1896   -2.3332   -4.6033 H   0  0  0  0  0  0  0  0  0  0  0  0
   -0.9756   -2.2364   -5.8830 H   0  0  0  0  0  0  0  0  0  0  0  0
   -1.7846    0.5949    1.1404 C   0  0  0  0  0  0  0  0  0  0  0  0
   -2.3957    2.6863    2.8900 C   0  0  0  0  0  0  0  0  0  0  0  0
   -1.5946    0.4151    2.5335 C   0  0  0  0  0  0  0  0  0  0  0  0
   -2.3404    1.7932    0.6280 C   0  0  0  0  0  0  0  0  0  0  0  0
   -2.6262    2.8343    1.5227 C   0  0  0  0  0  0  0  0  0  0  0  0
   -1.8978    1.4833    3.3902 C   0  0  0  0  0  0  0  0  0  0  0  0
   -3.0441    3.7671    1.1439 H   0  0  0  0  0  0  0  0  0  0  0  0
   -1.7501    1.3693    4.4643 H   0  0  0  0  0  0  0  0  0  0  0  0
   -2.6191    3.5067    3.5709 H   0  0  0  0  0  0  0  0  0  0  0  0
   -1.1396   -0.9134    3.1166 C   0  0  0  0  0  0  0  0  0  0  0  0
   -0.5207   -1.4527    2.3477 H   0  0  0  0  0  0  0  0  0  0  0  0
   -2.3780   -1.7641    3.4433 C   0  0  0  0  0  0  0  0  0  0  0  0
   -3.0363   -1.2591    4.1586 H   0  0  0  0  0  0  0  0  0  0  0  0
   -2.0874   -2.7234    3.8844 H   0  0  0  0  0  0  0  0  0  0  0  0
   -2.9673   -1.9749    2.5381 H   0  0  0  0  0  0  0  0  0  0  0  0
   -0.2608   -0.7424    4.3608 C   0  0  0  0  0  0  0  0  0  0  0  0
    0.5722   -0.0532    4.1570 H   0  0  0  0  0  0  0  0  0  0  0  0
    0.1890   -1.6980    4.6527 H   0  0  0  0  0  0  0  0  0  0  0  0
   -0.8164   -0.3588    5.2209 H   0  0  0  0  0  0  0  0  0  0  0  0
   -2.6990    1.9468   -0.8411 C   0  0  0  0  0  0  0  0  0  0  0  0
   -2.0808    1.2292   -1.4484 H   0  0  0  0  0  0  0  0  0  0  0  0
   -4.1822    1.5893   -1.0295 C   0  0  0  0  0  0  0  0  0  0  0  0
   -4.4840    1.7147   -2.0749 H   0  0  0  0  0  0  0  0  0  0  0  0
   -4.8330    2.2260   -0.4207 H   0  0  0  0  0  0  0  0  0  0  0  0
   -4.3745    0.5438   -0.7467 H   0  0  0  0  0  0  0  0  0  0  0  0
   -2.3974    3.3520   -1.3720 C   0  0  0  0  0  0  0  0  0  0  0  0
   -2.5482    3.3960   -2.4574 H   0  0  0  0  0  0  0  0  0  0  0  0
   -1.3432    3.6122   -1.1970 H   0  0  0  0  0  0  0  0  0  0  0  0
   -3.0239    4.1223   -0.9151 H   0  0  0  0  0  0  0  0  0  0  0  0
  1  2  1  0  0  0  0
  1  3  2  0  0  0  0
  3  4  1  0  0  0  0
  2  5  1  0  0  0  0
  5  6  1  0  0  0  0
  5  7  1  0  0  0  0
  7  8  1  0  0  0  0
  7  9  1  0  0  0  0
  7 10  1  0  0  0  0
  5 11  1  0  0  0  0
 11 12  1  0  0  0  0
 11 13  1  0  0  0  0
 11 14  1  0  0  0  0
  2 15  1  0  0  0  0
 15 24  1  0  0  0  0
 15 16  2  0  0  0  0
 16 17  1  0  0  0  0
 16 18  1  0  0  0  0
 18 19  1  0  0  0  0
 18 20  2  0  0  0  0
 20 21  1  0  0  0  0
 20 22  1  0  0  0  0
 22 24  2  0  0  0  0
 22 23  1  0  0  0  0
  3 24  1  0  0  0  0
  1 25  1  0  0  0  0
  1 26  1  0  0  0  0
 27 28  1  0  0  0  0
 27 31  1  0  0  0  0
 28 29  1  0  0  0  0
 29 32  1  0  0  0  0
 29 33  1  0  0  0  0
 29 30  1  0  0  0  0
 30 34  1  0  0  0  0
 30 35  1  0  0  0  0
 30 31  1  0  0  0  0
  1 27  1  0  0  0  0
 36 39  2  0  0  0  0
 36 38  1  0  0  0  0
 37 40  2  0  0  0  0
 37 41  1  0  0  0  0
 37 44  1  0  0  0  0
 38 41  2  0  0  0  0
 39 40  1  0  0  0  0
 40 42  1  0  0  0  0
 41 43  1  0  0  0  0
 28 36  1  0  0  0  0
 45 46  1  0  0  0  0
 45 47  1  0  0  0  0
 45 51  1  0  0  0  0
 47 48  1  0  0  0  0
 47 49  1  0  0  0  0
 47 50  1  0  0  0  0
 51 52  1  0  0  0  0
 51 53  1  0  0  0  0
 51 54  1  0  0  0  0
 38 45  1  0  0  0  0
 55 56  1  0  0  0  0
 55 57  1  0  0  0  0
 55 61  1  0  0  0  0
 57 58  1  0  0  0  0
 57 59  1  0  0  0  0
 57 60  1  0  0  0  0
 61 62  1  0  0  0  0
 61 63  1  0  0  0  0
 61 64  1  0  0  0  0
 39 55  1  0  0  0  0
 65 68  2  0  0  0  0
 65 67  1  0  0  0  0
 66 69  2  0  0  0  0
 66 70  1  0  0  0  0
 66 73  1  0  0  0  0
 67 70  2  0  0  0  0
 68 69  1  0  0  0  0
 69 71  1  0  0  0  0
 70 72  1  0  0  0  0
 31 65  1  0  0  0  0
 74 75  1  0  0  0  0
 74 76  1  0  0  0  0
 74 80  1  0  0  0  0
 76 77  1  0  0  0  0
 76 78  1  0  0  0  0
 76 79  1  0  0  0  0
 80 81  1  0  0  0  0
 80 82  1  0  0  0  0
 80 83  1  0  0  0  0
 67 74  1  0  0  0  0
 84 85  1  0  0  0  0
 84 86  1  0  0  0  0
 84 90  1  0  0  0  0
 86 87  1  0  0  0  0
 86 88  1  0  0  0  0
 86 89  1  0  0  0  0
 90 91  1  0  0  0  0
 90 92  1  0  0  0  0
 90 93  1  0  0  0  0
 68 84  1  0  0  0  0
M  END
> <FrozenCore-PM6_ENERGY>
-34.419

> <RMSD_CONF_CG-CS>
0.444712

> <RMSD_CONF_GO-CS>
0.000000

> <UID>


> <DESCRIPTOR_DEFINITION_1>
desc1=( echo "1 * ( e( $hartree_to_kcalmol * ( ( $freeEnergyZ - $freeEnergyD ) - ( $freeEnergyX + 2*$G_Ethene - $freeEnergyD - 2*$G_Propene ) - $DDG_reference_HGII ) / $kT ) ) " | bc -l )

> <DESCRIPTOR_DEFINITION_2>
desc1=( echo "1 * ( e( $hartree_to_kcalmol * ( ( $freeEnergyZ - $freeEnergyD ) - ( $freeEnergyX + 2*$G_Ethene - $freeEnergyD - 2*$G_Propene ) - $DDG_reference_HGII ) / $kT ) ) " | bc -l )

> <DESCRIPTOR_DEFINITION_3>
desc1=( echo "1 * ( e( $hartree_to_kcalmol * ( ( $freeEnergyZ - $freeEnergyD ) - ( $freeEnergyX + 2*$G_Ethene - $freeEnergyD - 2*$G_Propene ) - $DDG_reference_HGII ) / $kT ) ) " | bc -l )

> <WEIGHT_DEFINITION_1>
w1=$( echo "1 / ( 1 + e( $hartree_to_kcalmol * ( ( ( $freeEnergyX + 2*$G_Ethene - $freeEnergyD - 2*$G_Propene ) ) - ( $DG_referenceProductionBarrier + $magnitude4 ) ) / $kT ) )" | bc -l )

> <WEIGHT_DEFINITION_2>
w1=$( echo "1 / ( 1 + e( $hartree_to_kcalmol * ( ( ( $freeEnergyX + 2*$G_Ethene - $freeEnergyD - 2*$G_Propene ) ) - ( $DG_referenceProductionBarrier + $magnitude4 ) ) / $kT ) )" | bc -l )

> <WEIGHT_DEFINITION_3>
w1=$( echo "1 / ( 1 + e( $hartree_to_kcalmol * ( ( ( $freeEnergyX + 2*$G_Ethene - $freeEnergyD - 2*$G_Propene ) ) - ( $DG_referenceProductionBarrier + $magnitude4 ) ) / $kT ) )" | bc -l )

> <WEIGHT_DEFINITION_4>
w1=$( echo "1 / ( 1 + e( $hartree_to_kcalmol * ( ( ( $freeEnergyX + 2*$G_Ethene - $freeEnergyD - 2*$G_Propene ) ) - ( $DG_referenceProductionBarrier + $magnitude4 ) ) / $kT ) )" | bc -l )

> <CALCULATION_OF_OVERALL_FITNESS>
fitness=$( echo "( $desc1 + $desc2 + $desc3 ) * ( $w1 * $w2 * $w3 * $w4 )" | bc -l )

> <freeEnergyA>
-2637.69351404

> <freeEnergyF>
-2637.67313278

> <freeEnergyE>
-2637.69351404

> <freeEnergyC>
-2292.43655411

> <freeEnergyL>
-1159.83074497

> <freeEnergyX>
-2370.97341094

> <freeEnergyZ>
-2292.41906618

> <freeEnergyD>
-2292.46272902

> <G_Propene>
-117.738020895

> <G_Ethene>
-78.4716324751

> <G_HoveydaProd>
-502.204109499

> <G_SIMes>
-924.27249048

> <G_HG_RuCl2_SIMes>
-2402.13728523

> <DG_referenceProductionBarrier>
0.01468968

> <DG_referencePrecursorStabilityHII>
-0.0052201621

> <DG_referencePrecursorStabilityHI>
0.0117775312

> <DDG_referencePrecursorStability>
.0169976933

> <DG_referenceSynt>
0.0226072217

> <hartree_to_kcalmol>
627.49467516

> <boltzmann_constant>
0.0000000000000000000000138066

> <avogadro_number>
602214000000000000000000

> <jmol_to_kcalmol>
0.00023901

> <temp>
313.15

> <kT>
.6223089948281258706000000000

> <magnitude1>
1.43290809

> <magnitude2>
2.86581618

> <magnitude3>
4.29872427

> <magnitude4>
5.73163236

> <DFT_IDENTIFIER>
1723698674755

> <DFT_MACHINE>
158.39.114.73

> <XTB_IDENTIFIER>
1723697722732

> <XTB_MACHINE>
158.39.114.73

> <DESCRIPTOR_1>
.51227184017429897176

> <DESCRIPTOR_2>
13.533755079775802232

> <DESCRIPTOR_3>
.110755947639115800

> <WEIGHT_1>
.99991630464597777622

> <WEIGHT_2>
.99999998615344107677

> <WEIGHT_3>
.99999999990293227539

> <WEIGHT_4>
.99999988121642487403

> <FITNESS>
14.15559613180240844978

$$$$
