
  CDK     08152406093D

 79 82  0  0  0  0  0  0  0  0999 V2000
   -0.0021    0.0114    1.9046 Ru  0  0  0  0  0  0  0  0  0  0  0  0
    0.2380   -1.3063    3.3337 C   0  0  0  0  0  0  0  0  0  0  0  0
   -0.5798   -2.0412    3.4374 H   0  0  0  0  0  0  0  0  0  0  0  0
   -0.0041    0.0246    4.1551 C   0  0  0  0  0  0  0  0  0  0  0  0
   -0.9202   -0.1391    4.7510 H   0  0  0  0  0  0  0  0  0  0  0  0
   -0.2444    1.3459    3.3178 C   0  0  0  0  0  0  0  0  0  0  0  0
    0.5734    2.0817    3.4145 H   0  0  0  0  0  0  0  0  0  0  0  0
   -1.2703    1.7420    3.4206 H   0  0  0  0  0  0  0  0  0  0  0  0
    0.9107    0.1952    4.7509 H   0  0  0  0  0  0  0  0  0  0  0  0
    1.2638   -1.7009    3.4430 H   0  0  0  0  0  0  0  0  0  0  0  0
   -2.3389   -0.4621    1.9717 Cl  0  0  0  0  0  0  0  0  0  0  0  0
    2.3346    0.4861    1.9699 Cl  0  0  0  0  0  0  0  0  0  0  0  0
    0.0001   -0.0003   -0.0751 C   0  0  0  0  0  0  0  0  0  0  0  0
    0.0382    1.1002   -0.8656 N   0  0  0  0  0  0  0  0  0  0  0  0
   -0.1783    0.7289   -2.2810 C   0  0  0  0  0  0  0  0  0  0  0  0
    0.1859   -0.7587   -2.2706 C   0  0  0  0  0  0  0  0  0  0  0  0
   -0.0354   -1.1113   -0.8512 N   0  0  0  0  0  0  0  0  0  0  0  0
   -1.2418    0.8960   -2.5573 H   0  0  0  0  0  0  0  0  0  0  0  0
    0.4641    1.3302   -2.9482 H   0  0  0  0  0  0  0  0  0  0  0  0
    1.2504   -0.9294   -2.5410 H   0  0  0  0  0  0  0  0  0  0  0  0
   -0.4541   -1.3687   -2.9322 H   0  0  0  0  0  0  0  0  0  0  0  0
    0.0303    2.4512   -0.3641 C   0  0  0  0  0  0  0  0  0  0  0  0
    0.0570    5.0395    0.6756 C   0  0  0  0  0  0  0  0  0  0  0  0
    1.2629    3.1533   -0.3023 C   0  0  0  0  0  0  0  0  0  0  0  0
   -1.1963    3.0387    0.0429 C   0  0  0  0  0  0  0  0  0  0  0  0
   -1.1505    4.3417    0.5734 C   0  0  0  0  0  0  0  0  0  0  0  0
    1.2472    4.4543    0.2299 C   0  0  0  0  0  0  0  0  0  0  0  0
   -2.0830    4.8171    0.9067 H   0  0  0  0  0  0  0  0  0  0  0  0
    2.1889    5.0151    0.3023 H   0  0  0  0  0  0  0  0  0  0  0  0
    0.0698    6.0547    1.0988 H   0  0  0  0  0  0  0  0  0  0  0  0
    2.5566    2.5652   -0.8483 C   0  0  0  0  0  0  0  0  0  0  0  0
    2.4506    1.4621   -0.8211 H   0  0  0  0  0  0  0  0  0  0  0  0
    3.7911    2.9286   -0.0117 C   0  0  0  0  0  0  0  0  0  0  0  0
    4.0409    4.0071   -0.0916 H   0  0  0  0  0  0  0  0  0  0  0  0
    4.6717    2.3639   -0.3785 H   0  0  0  0  0  0  0  0  0  0  0  0
    3.6354    2.6691    1.0517 H   0  0  0  0  0  0  0  0  0  0  0  0
    2.7619    3.0148   -2.3093 C   0  0  0  0  0  0  0  0  0  0  0  0
    1.8968    2.7670   -2.9569 H   0  0  0  0  0  0  0  0  0  0  0  0
    3.6649    2.5378   -2.7430 H   0  0  0  0  0  0  0  0  0  0  0  0
    2.9003    4.1150   -2.3616 H   0  0  0  0  0  0  0  0  0  0  0  0
   -2.5377    2.3487   -0.1649 C   0  0  0  0  0  0  0  0  0  0  0  0
   -2.3626    1.2546   -0.1958 H   0  0  0  0  0  0  0  0  0  0  0  0
   -3.5362    2.6023    0.9723 C   0  0  0  0  0  0  0  0  0  0  0  0
   -3.8700    3.6603    1.0031 H   0  0  0  0  0  0  0  0  0  0  0  0
   -3.1047    2.3284    1.9527 H   0  0  0  0  0  0  0  0  0  0  0  0
   -4.4366    1.9740    0.8251 H   0  0  0  0  0  0  0  0  0  0  0  0
   -3.1455    2.7978   -1.5097 C   0  0  0  0  0  0  0  0  0  0  0  0
   -4.0893    2.2515   -1.7132 H   0  0  0  0  0  0  0  0  0  0  0  0
   -2.4565    2.6279   -2.3613 H   0  0  0  0  0  0  0  0  0  0  0  0
   -3.3768    3.8834   -1.4897 H   0  0  0  0  0  0  0  0  0  0  0  0
   -0.0300   -2.4552   -0.3309 C   0  0  0  0  0  0  0  0  0  0  0  0
   -0.0617   -5.0274    0.7479 C   0  0  0  0  0  0  0  0  0  0  0  0
    1.1950   -3.0378    0.0877 C   0  0  0  0  0  0  0  0  0  0  0  0
   -1.2634   -3.1551   -0.2616 C   0  0  0  0  0  0  0  0  0  0  0  0
   -1.2503   -4.4480    0.2904 C   0  0  0  0  0  0  0  0  0  0  0  0
    1.1467   -4.3325    0.6379 C   0  0  0  0  0  0  0  0  0  0  0  0
   -2.1927   -5.0067    0.3690 H   0  0  0  0  0  0  0  0  0  0  0  0
    2.0780   -4.8037    0.9806 H   0  0  0  0  0  0  0  0  0  0  0  0
   -0.0766   -6.0360    1.1867 H   0  0  0  0  0  0  0  0  0  0  0  0
    2.5376   -2.3524   -0.1278 C   0  0  0  0  0  0  0  0  0  0  0  0
    2.3638   -1.2586   -0.1740 H   0  0  0  0  0  0  0  0  0  0  0  0
    3.1464   -2.8209   -1.4656 C   0  0  0  0  0  0  0  0  0  0  0  0
    3.3764   -3.9063   -1.4301 H   0  0  0  0  0  0  0  0  0  0  0  0
    4.0910   -2.2784   -1.6757 H   0  0  0  0  0  0  0  0  0  0  0  0
    2.4584   -2.6621   -2.3201 H   0  0  0  0  0  0  0  0  0  0  0  0
    3.5346   -2.5915    1.0139 C   0  0  0  0  0  0  0  0  0  0  0  0
    3.1023   -2.3044    1.9901 H   0  0  0  0  0  0  0  0  0  0  0  0
    4.4356   -1.9660    0.8594 H   0  0  0  0  0  0  0  0  0  0  0  0
    3.8676   -3.6493    1.0590 H   0  0  0  0  0  0  0  0  0  0  0  0
   -2.5551   -2.5743   -0.8200 C   0  0  0  0  0  0  0  0  0  0  0  0
   -2.4492   -1.4710   -0.8070 H   0  0  0  0  0  0  0  0  0  0  0  0
   -2.7549   -3.0433   -2.2758 C   0  0  0  0  0  0  0  0  0  0  0  0
   -3.6562   -2.5722   -2.7191 H   0  0  0  0  0  0  0  0  0  0  0  0
   -2.8930   -4.1442   -2.3138 H   0  0  0  0  0  0  0  0  0  0  0  0
   -1.8873   -2.8041   -2.9232 H   0  0  0  0  0  0  0  0  0  0  0  0
   -3.7929   -2.9266    0.0164 C   0  0  0  0  0  0  0  0  0  0  0  0
   -4.6720   -2.3666   -0.3612 H   0  0  0  0  0  0  0  0  0  0  0  0
   -3.6413   -2.6535    1.0770 H   0  0  0  0  0  0  0  0  0  0  0  0
   -4.0426   -4.0061   -0.0505 H   0  0  0  0  0  0  0  0  0  0  0  0
  2  4  1  0  0  0  0
  2  1  1  0  0  0  0
  2  3  1  0  0  0  0
  4  6  1  0  0  0  0
  4  5  1  0  0  0  0
  6  1  1  0  0  0  0
  6  8  1  0  0  0  0
  7  6  1  0  0  0  0
  9  4  1  0  0  0  0
 10  2  1  0  0  0  0
  1 11  1  0  0  0  0
  1 12  1  0  0  0  0
 13 14  1  0  0  0  0
 13 17  1  0  0  0  0
 14 15  1  0  0  0  0
 15 18  1  0  0  0  0
 15 19  1  0  0  0  0
 15 16  1  0  0  0  0
 16 20  1  0  0  0  0
 16 21  1  0  0  0  0
 16 17  1  0  0  0  0
 22 25  2  0  0  0  0
 22 24  1  0  0  0  0
 23 26  2  0  0  0  0
 23 27  1  0  0  0  0
 23 30  1  0  0  0  0
 24 27  2  0  0  0  0
 25 26  1  0  0  0  0
 26 28  1  0  0  0  0
 27 29  1  0  0  0  0
 14 22  1  0  0  0  0
 31 32  1  0  0  0  0
 31 33  1  0  0  0  0
 31 37  1  0  0  0  0
 33 34  1  0  0  0  0
 33 35  1  0  0  0  0
 33 36  1  0  0  0  0
 37 38  1  0  0  0  0
 37 39  1  0  0  0  0
 37 40  1  0  0  0  0
 24 31  1  0  0  0  0
 41 42  1  0  0  0  0
 41 43  1  0  0  0  0
 41 47  1  0  0  0  0
 43 44  1  0  0  0  0
 43 45  1  0  0  0  0
 43 46  1  0  0  0  0
 47 48  1  0  0  0  0
 47 49  1  0  0  0  0
 47 50  1  0  0  0  0
 25 41  1  0  0  0  0
 51 54  2  0  0  0  0
 51 53  1  0  0  0  0
 52 55  2  0  0  0  0
 52 56  1  0  0  0  0
 52 59  1  0  0  0  0
 53 56  2  0  0  0  0
 54 55  1  0  0  0  0
 55 57  1  0  0  0  0
 56 58  1  0  0  0  0
 17 51  1  0  0  0  0
 60 61  1  0  0  0  0
 60 62  1  0  0  0  0
 60 66  1  0  0  0  0
 62 63  1  0  0  0  0
 62 64  1  0  0  0  0
 62 65  1  0  0  0  0
 66 67  1  0  0  0  0
 66 68  1  0  0  0  0
 66 69  1  0  0  0  0
 53 60  1  0  0  0  0
 70 71  1  0  0  0  0
 70 72  1  0  0  0  0
 70 76  1  0  0  0  0
 72 73  1  0  0  0  0
 72 74  1  0  0  0  0
 72 75  1  0  0  0  0
 76 77  1  0  0  0  0
 76 78  1  0  0  0  0
 76 79  1  0  0  0  0
 54 70  1  0  0  0  0
  1 13  1  0  0  0  0
M  END
>  <DFT-ENERGY>
-2292.46272913

$$$$
