
  CDK     08142405093D

 85 88  0  0  0  0  0  0  0  0999 V2000
   -1.2291    3.5423   -1.7926 C   0  0  0  0  0  0  0  0  0  0  0  0
   -0.2898    3.6655   -2.3592 H   0  0  0  0  0  0  0  0  0  0  0  0
   -1.9135    4.3926   -2.0100 H   0  0  0  0  0  0  0  0  0  0  0  0
   -1.7387    2.6280   -2.1616 H   0  0  0  0  0  0  0  0  0  0  0  0
   -0.9916    3.4839   -0.3018 C   0  0  0  0  0  0  0  0  0  0  0  0
   -1.9021    3.4427    0.3251 H   0  0  0  0  0  0  0  0  0  0  0  0
    0.1533    4.0149    0.3520 C   0  0  0  0  0  0  0  0  0  0  0  0
    1.0007    4.3112   -0.2907 H   0  0  0  0  0  0  0  0  0  0  0  0
    0.0075    4.6946    1.6945 C   0  0  0  0  0  0  0  0  0  0  0  0
    0.9742    4.8269    2.2160 H   0  0  0  0  0  0  0  0  0  0  0  0
   -0.4261    5.7050    1.5318 H   0  0  0  0  0  0  0  0  0  0  0  0
   -0.6845    4.1253    2.3460 H   0  0  0  0  0  0  0  0  0  0  0  0
    1.3344    2.2444    1.2773 C   0  0  0  0  0  0  0  0  0  0  0  0
    1.1229    2.3324    2.3643 H   0  0  0  0  0  0  0  0  0  0  0  0
    2.3565    2.5066    0.9268 H   0  0  0  0  0  0  0  0  0  0  0  0
    0.0719    1.6330    0.1038 Ru  0  0  0  0  0  0  0  0  0  0  0  0
   -1.4899    1.4134    1.9288 Cl  0  0  0  0  0  0  0  0  0  0  0  0
    1.6266    1.9501   -1.6910 Cl  0  0  0  0  0  0  0  0  0  0  0  0
    0.0154   -0.3586    0.0501 C   0  0  0  0  0  0  0  0  0  0  0  0
   -0.8804   -1.0345   -0.7228 N   0  0  0  0  0  0  0  0  0  0  0  0
   -1.0878   -2.4073   -0.2229 C   0  0  0  0  0  0  0  0  0  0  0  0
    0.1946   -2.6341    0.5816 C   0  0  0  0  0  0  0  0  0  0  0  0
    0.6212   -1.2483    0.8811 N   0  0  0  0  0  0  0  0  0  0  0  0
   -1.9916   -2.4458    0.4224 H   0  0  0  0  0  0  0  0  0  0  0  0
   -1.2174   -3.1205   -1.0575 H   0  0  0  0  0  0  0  0  0  0  0  0
    0.9781   -3.1519   -0.0129 H   0  0  0  0  0  0  0  0  0  0  0  0
    0.0230   -3.2009    1.5137 H   0  0  0  0  0  0  0  0  0  0  0  0
   -1.6080   -0.4339   -1.8076 C   0  0  0  0  0  0  0  0  0  0  0  0
   -2.9910    0.7145   -3.9439 C   0  0  0  0  0  0  0  0  0  0  0  0
   -0.9518   -0.3097   -3.0655 C   0  0  0  0  0  0  0  0  0  0  0  0
   -2.9473   -0.0107   -1.6112 C   0  0  0  0  0  0  0  0  0  0  0  0
   -3.6233    0.5609   -2.7071 C   0  0  0  0  0  0  0  0  0  0  0  0
   -1.6690    0.2847   -4.1177 C   0  0  0  0  0  0  0  0  0  0  0  0
   -4.6618    0.8972   -2.5800 H   0  0  0  0  0  0  0  0  0  0  0  0
   -1.1839    0.4111   -5.0942 H   0  0  0  0  0  0  0  0  0  0  0  0
   -3.5320    1.1740   -4.7842 H   0  0  0  0  0  0  0  0  0  0  0  0
    0.4574   -0.8454   -3.2884 C   0  0  0  0  0  0  0  0  0  0  0  0
    1.0292   -0.6484   -2.3605 H   0  0  0  0  0  0  0  0  0  0  0  0
    1.2072   -0.1465   -4.4281 C   0  0  0  0  0  0  0  0  0  0  0  0
    0.7782   -0.3924   -5.4222 H   0  0  0  0  0  0  0  0  0  0  0  0
    2.2633   -0.4828   -4.4373 H   0  0  0  0  0  0  0  0  0  0  0  0
    1.2045    0.9507   -4.2899 H   0  0  0  0  0  0  0  0  0  0  0  0
    0.4274   -2.3664   -3.5333 C   0  0  0  0  0  0  0  0  0  0  0  0
   -0.0484   -2.9195   -2.7007 H   0  0  0  0  0  0  0  0  0  0  0  0
    1.4585   -2.7583   -3.6523 H   0  0  0  0  0  0  0  0  0  0  0  0
   -0.1380   -2.6055   -4.4582 H   0  0  0  0  0  0  0  0  0  0  0  0
   -3.6730   -0.2050   -0.2886 C   0  0  0  0  0  0  0  0  0  0  0  0
   -2.9059   -0.3584    0.4965 H   0  0  0  0  0  0  0  0  0  0  0  0
   -4.4828    1.0301    0.1310 C   0  0  0  0  0  0  0  0  0  0  0  0
   -5.3396    1.2182   -0.5488 H   0  0  0  0  0  0  0  0  0  0  0  0
   -3.8427    1.9318    0.1599 H   0  0  0  0  0  0  0  0  0  0  0  0
   -4.8915    0.8828    1.1502 H   0  0  0  0  0  0  0  0  0  0  0  0
   -4.5824   -1.4469   -0.3635 C   0  0  0  0  0  0  0  0  0  0  0  0
   -5.0693   -1.6342    0.6155 H   0  0  0  0  0  0  0  0  0  0  0  0
   -4.0211   -2.3589   -0.6502 H   0  0  0  0  0  0  0  0  0  0  0  0
   -5.3828   -1.3035   -1.1194 H   0  0  0  0  0  0  0  0  0  0  0  0
    1.6850   -0.9565    1.8008 C   0  0  0  0  0  0  0  0  0  0  0  0
    3.7477   -0.4299    3.6125 C   0  0  0  0  0  0  0  0  0  0  0  0
    2.9920   -0.7004    1.3018 C   0  0  0  0  0  0  0  0  0  0  0  0
    1.4014   -0.9654    3.1904 C   0  0  0  0  0  0  0  0  0  0  0  0
    2.4591   -0.7015    4.0808 C   0  0  0  0  0  0  0  0  0  0  0  0
    4.0071   -0.4292    2.2370 C   0  0  0  0  0  0  0  0  0  0  0  0
    2.2616   -0.7015    5.1621 H   0  0  0  0  0  0  0  0  0  0  0  0
    5.0233   -0.2193    1.8773 H   0  0  0  0  0  0  0  0  0  0  0  0
    4.5591   -0.2180    4.3244 H   0  0  0  0  0  0  0  0  0  0  0  0
    3.3195   -0.7678   -0.1838 C   0  0  0  0  0  0  0  0  0  0  0  0
    2.4066   -0.4842   -0.7434 H   0  0  0  0  0  0  0  0  0  0  0  0
    3.7186   -2.2028   -0.5808 C   0  0  0  0  0  0  0  0  0  0  0  0
    4.6598   -2.5022   -0.0736 H   0  0  0  0  0  0  0  0  0  0  0  0
    3.8833   -2.2711   -1.6760 H   0  0  0  0  0  0  0  0  0  0  0  0
    2.9466   -2.9475   -0.3043 H   0  0  0  0  0  0  0  0  0  0  0  0
    4.4145    0.2165   -0.6139 C   0  0  0  0  0  0  0  0  0  0  0  0
    4.1731    1.2498   -0.3016 H   0  0  0  0  0  0  0  0  0  0  0  0
    4.4944    0.2219   -1.7186 H   0  0  0  0  0  0  0  0  0  0  0  0
    5.4095   -0.0624   -0.2082 H   0  0  0  0  0  0  0  0  0  0  0  0
    0.0168   -1.2820    3.7382 C   0  0  0  0  0  0  0  0  0  0  0  0
   -0.6978   -1.2001    2.8949 H   0  0  0  0  0  0  0  0  0  0  0  0
   -0.0216   -2.7147    4.3048 C   0  0  0  0  0  0  0  0  0  0  0  0
   -1.0460   -2.9763    4.6406 H   0  0  0  0  0  0  0  0  0  0  0  0
    0.6556   -2.8099    5.1793 H   0  0  0  0  0  0  0  0  0  0  0  0
    0.3025   -3.4724    3.5622 H   0  0  0  0  0  0  0  0  0  0  0  0
   -0.4369   -0.2746    4.8056 C   0  0  0  0  0  0  0  0  0  0  0  0
   -1.4808   -0.4922    5.1096 H   0  0  0  0  0  0  0  0  0  0  0  0
   -0.4115    0.7565    4.4064 H   0  0  0  0  0  0  0  0  0  0  0  0
    0.1913   -0.3288    5.7190 H   0  0  0  0  0  0  0  0  0  0  0  0
  1  2  1  0  0  0  0
  1  5  1  0  0  0  0
  3  1  1  0  0  0  0
  4  1  1  0  0  0  0
  5  6  1  0  0  0  0
  5 16  1  0  0  0  0
  5  7  1  0  0  0  0
  7  9  1  0  0  0  0
  7  8  1  0  0  0  0
  9 10  1  0  0  0  0
 11  9  1  0  0  0  0
 12  9  1  0  0  0  0
 13 14  1  0  0  0  0
 13 15  1  0  0  0  0
 13  7  1  0  0  0  0
 16 13  1  0  0  0  0
 16 17  1  0  0  0  0
 16 18  1  0  0  0  0
 19 20  1  0  0  0  0
 19 23  1  0  0  0  0
 20 21  1  0  0  0  0
 21 24  1  0  0  0  0
 21 25  1  0  0  0  0
 21 22  1  0  0  0  0
 22 26  1  0  0  0  0
 22 27  1  0  0  0  0
 22 23  1  0  0  0  0
 28 31  2  0  0  0  0
 28 30  1  0  0  0  0
 29 32  2  0  0  0  0
 29 33  1  0  0  0  0
 29 36  1  0  0  0  0
 30 33  2  0  0  0  0
 31 32  1  0  0  0  0
 32 34  1  0  0  0  0
 33 35  1  0  0  0  0
 20 28  1  0  0  0  0
 37 38  1  0  0  0  0
 37 39  1  0  0  0  0
 37 43  1  0  0  0  0
 39 40  1  0  0  0  0
 39 41  1  0  0  0  0
 39 42  1  0  0  0  0
 43 44  1  0  0  0  0
 43 45  1  0  0  0  0
 43 46  1  0  0  0  0
 30 37  1  0  0  0  0
 47 48  1  0  0  0  0
 47 49  1  0  0  0  0
 47 53  1  0  0  0  0
 49 50  1  0  0  0  0
 49 51  1  0  0  0  0
 49 52  1  0  0  0  0
 53 54  1  0  0  0  0
 53 55  1  0  0  0  0
 53 56  1  0  0  0  0
 31 47  1  0  0  0  0
 57 60  2  0  0  0  0
 57 59  1  0  0  0  0
 58 61  2  0  0  0  0
 58 62  1  0  0  0  0
 58 65  1  0  0  0  0
 59 62  2  0  0  0  0
 60 61  1  0  0  0  0
 61 63  1  0  0  0  0
 62 64  1  0  0  0  0
 23 57  1  0  0  0  0
 66 67  1  0  0  0  0
 66 68  1  0  0  0  0
 66 72  1  0  0  0  0
 68 69  1  0  0  0  0
 68 70  1  0  0  0  0
 68 71  1  0  0  0  0
 72 73  1  0  0  0  0
 72 74  1  0  0  0  0
 72 75  1  0  0  0  0
 59 66  1  0  0  0  0
 76 77  1  0  0  0  0
 76 78  1  0  0  0  0
 76 82  1  0  0  0  0
 78 79  1  0  0  0  0
 78 80  1  0  0  0  0
 78 81  1  0  0  0  0
 82 83  1  0  0  0  0
 82 84  1  0  0  0  0
 82 85  1  0  0  0  0
 60 76  1  0  0  0  0
 16 19  1  0  0  0  0
M  END
>  <DFT-ENERGY>
-2370.97341105

$$$$
