
  CDK     08132406383D

 71 74  0  0  0  0  0  0  0  0999 V2000
    0.2670    1.5578   -3.1798 C   0  0  0  0  0  0  0  0  0  0  0  0
   -0.7465    1.9956   -3.1560 H   0  0  0  0  0  0  0  0  0  0  0  0
    0.8385    1.9808   -4.0361 H   0  0  0  0  0  0  0  0  0  0  0  0
    0.8041    1.8770   -2.2609 H   0  0  0  0  0  0  0  0  0  0  0  0
    0.2412    0.0525   -3.3099 C   0  0  0  0  0  0  0  0  0  0  0  0
    1.2293   -0.4287   -3.4320 H   0  0  0  0  0  0  0  0  0  0  0  0
   -0.8612   -0.6988   -3.8005 C   0  0  0  0  0  0  0  0  0  0  0  0
   -1.8150   -0.1609   -3.9392 H   0  0  0  0  0  0  0  0  0  0  0  0
   -0.6115   -1.9245   -4.6509 C   0  0  0  0  0  0  0  0  0  0  0  0
   -1.5031   -2.5734   -4.7419 H   0  0  0  0  0  0  0  0  0  0  0  0
   -0.3343   -1.5923   -5.6748 H   0  0  0  0  0  0  0  0  0  0  0  0
    0.2310   -2.5179   -4.2444 H   0  0  0  0  0  0  0  0  0  0  0  0
   -1.6679   -1.9908   -2.0497 C   0  0  0  0  0  0  0  0  0  0  0  0
   -1.2753   -3.0046   -2.2785 H   0  0  0  0  0  0  0  0  0  0  0  0
   -2.7607   -1.8204   -2.1670 H   0  0  0  0  0  0  0  0  0  0  0  0
   -0.5752   -0.6592   -1.4401 Ru  0  0  0  0  0  0  0  0  0  0  0  0
    1.2836   -2.1921   -1.5375 Cl  0  0  0  0  0  0  0  0  0  0  0  0
   -2.4594    0.8408   -1.4547 Cl  0  0  0  0  0  0  0  0  0  0  0  0
    0.2274    0.2807    1.3324 N   0  0  0  0  0  0  0  0  0  0  0  0
   -1.0635   -1.4503    1.4995 N   0  0  0  0  0  0  0  0  0  0  0  0
   -0.4783   -0.6198    0.5812 C   0  0  0  0  0  0  0  0  0  0  0  0
    0.0936    0.0237    2.7095 C   0  0  0  0  0  0  0  0  0  0  0  0
    0.7773    0.8579    3.7353 C   0  0  0  0  0  0  0  0  0  0  0  0
   -0.7300   -1.0715    2.8154 C   0  0  0  0  0  0  0  0  0  0  0  0
   -1.2511   -1.8075    3.9998 C   0  0  0  0  0  0  0  0  0  0  0  0
    0.9754    1.3662    0.7546 C   0  0  0  0  0  0  0  0  0  0  0  0
    2.3292    1.1534    0.4092 C   0  0  0  0  0  0  0  0  0  0  0  0
    3.0178    2.2187   -0.1991 C   0  0  0  0  0  0  0  0  0  0  0  0
    4.0706    2.0700   -0.4846 H   0  0  0  0  0  0  0  0  0  0  0  0
    2.4055    3.4622   -0.4361 C   0  0  0  0  0  0  0  0  0  0  0  0
    1.0759    3.6476   -0.0154 C   0  0  0  0  0  0  0  0  0  0  0  0
    0.5928    4.6261   -0.1609 H   0  0  0  0  0  0  0  0  0  0  0  0
    0.3368    2.6168    0.5906 C   0  0  0  0  0  0  0  0  0  0  0  0
    3.0121   -0.1554    0.6922 C   0  0  0  0  0  0  0  0  0  0  0  0
    2.6234   -0.9553    0.0241 H   0  0  0  0  0  0  0  0  0  0  0  0
    2.8309   -0.4929    1.7331 H   0  0  0  0  0  0  0  0  0  0  0  0
    4.1038   -0.0687    0.5383 H   0  0  0  0  0  0  0  0  0  0  0  0
    3.1516    4.5694   -1.1368 C   0  0  0  0  0  0  0  0  0  0  0  0
    4.2464    4.4754   -0.9999 H   0  0  0  0  0  0  0  0  0  0  0  0
    2.8382    5.5674   -0.7725 H   0  0  0  0  0  0  0  0  0  0  0  0
    2.9535    4.5445   -2.2299 H   0  0  0  0  0  0  0  0  0  0  0  0
   -1.0826    2.8342    1.0346 C   0  0  0  0  0  0  0  0  0  0  0  0
   -1.7801    2.2977    0.3541 H   0  0  0  0  0  0  0  0  0  0  0  0
   -1.3371    3.9103    1.0223 H   0  0  0  0  0  0  0  0  0  0  0  0
   -1.2614    2.4419    2.0560 H   0  0  0  0  0  0  0  0  0  0  0  0
   -1.9199   -2.5590    1.1743 C   0  0  0  0  0  0  0  0  0  0  0  0
   -3.3055   -2.3276    1.0435 C   0  0  0  0  0  0  0  0  0  0  0  0
   -4.1176   -3.4248    0.7038 C   0  0  0  0  0  0  0  0  0  0  0  0
   -5.2013   -3.2641    0.5929 H   0  0  0  0  0  0  0  0  0  0  0  0
   -3.5859   -4.7116    0.5102 C   0  0  0  0  0  0  0  0  0  0  0  0
   -2.2034   -4.9011    0.6911 C   0  0  0  0  0  0  0  0  0  0  0  0
   -1.7736   -5.9076    0.5692 H   0  0  0  0  0  0  0  0  0  0  0  0
   -1.3456   -3.8408    1.0300 C   0  0  0  0  0  0  0  0  0  0  0  0
   -3.8876   -0.9562    1.2457 C   0  0  0  0  0  0  0  0  0  0  0  0
   -4.9926   -0.9967    1.2685 H   0  0  0  0  0  0  0  0  0  0  0  0
   -3.5758   -0.2732    0.4244 H   0  0  0  0  0  0  0  0  0  0  0  0
   -3.5356   -0.4960    2.1918 H   0  0  0  0  0  0  0  0  0  0  0  0
   -4.4722   -5.8636    0.1071 C   0  0  0  0  0  0  0  0  0  0  0  0
   -4.4186   -6.0392   -0.9887 H   0  0  0  0  0  0  0  0  0  0  0  0
   -5.5330   -5.6704    0.3584 H   0  0  0  0  0  0  0  0  0  0  0  0
   -4.1642   -6.8067    0.6006 H   0  0  0  0  0  0  0  0  0  0  0  0
    0.1306   -4.0555    1.2157 C   0  0  0  0  0  0  0  0  0  0  0  0
    0.6982   -3.5453    0.4065 H   0  0  0  0  0  0  0  0  0  0  0  0
    0.3779   -5.1333    1.1953 H   0  0  0  0  0  0  0  0  0  0  0  0
    0.4909   -3.6334    2.1762 H   0  0  0  0  0  0  0  0  0  0  0  0
   -0.8753   -1.3482    4.9327 H   0  0  0  0  0  0  0  0  0  0  0  0
   -0.9422   -2.8731    3.9894 H   0  0  0  0  0  0  0  0  0  0  0  0
   -2.3603   -1.7956    4.0304 H   0  0  0  0  0  0  0  0  0  0  0  0
    0.4629    1.9205    3.6769 H   0  0  0  0  0  0  0  0  0  0  0  0
    0.5448    0.4855    4.7501 H   0  0  0  0  0  0  0  0  0  0  0  0
    1.8794    0.8412    3.6062 H   0  0  0  0  0  0  0  0  0  0  0  0
  1  2  1  0  0  0  0
  1  5  1  0  0  0  0
  1  3  1  0  0  0  0
  1  4  1  0  0  0  0
  5  6  1  0  0  0  0
  5 16  1  0  0  0  0
  5  7  1  0  0  0  0
  7  9  1  0  0  0  0
  7  8  1  0  0  0  0
  9 10  1  0  0  0  0
  9 11  1  0  0  0  0
  9 12  1  0  0  0  0
 13 14  1  0  0  0  0
 13 15  1  0  0  0  0
  7 13  1  0  0  0  0
 13 16  1  0  0  0  0
 16 17  1  0  0  0  0
 16 18  1  0  0  0  0
 19 21  1  0  0  0  0
 19 22  1  0  0  0  0
 19 26  1  0  0  0  0
 20 21  1  0  0  0  0
 20 24  1  0  0  0  0
 20 46  1  0  0  0  0
 22 23  1  0  0  0  0
 22 24  2  0  0  0  0
 24 25  1  0  0  0  0
 26 27  2  0  0  0  0
 26 33  1  0  0  0  0
 27 28  1  0  0  0  0
 27 34  1  0  0  0  0
 28 29  1  0  0  0  0
 28 30  2  0  0  0  0
 30 31  1  0  0  0  0
 30 38  1  0  0  0  0
 31 32  1  0  0  0  0
 31 33  2  0  0  0  0
 33 42  1  0  0  0  0
 34 35  1  0  0  0  0
 34 36  1  0  0  0  0
 34 37  1  0  0  0  0
 38 39  1  0  0  0  0
 38 40  1  0  0  0  0
 38 41  1  0  0  0  0
 42 43  1  0  0  0  0
 42 44  1  0  0  0  0
 42 45  1  0  0  0  0
 46 47  2  0  0  0  0
 46 53  1  0  0  0  0
 47 48  1  0  0  0  0
 47 54  1  0  0  0  0
 48 49  1  0  0  0  0
 48 50  2  0  0  0  0
 50 51  1  0  0  0  0
 50 58  1  0  0  0  0
 51 52  1  0  0  0  0
 51 53  2  0  0  0  0
 53 62  1  0  0  0  0
 54 55  1  0  0  0  0
 54 56  1  0  0  0  0
 54 57  1  0  0  0  0
 58 59  1  0  0  0  0
 58 60  1  0  0  0  0
 58 61  1  0  0  0  0
 62 63  1  0  0  0  0
 62 64  1  0  0  0  0
 62 65  1  0  0  0  0
 25 66  1  0  0  0  0
 25 67  1  0  0  0  0
 25 68  1  0  0  0  0
 23 69  1  0  0  0  0
 23 70  1  0  0  0  0
 23 71  1  0  0  0  0
 16 21  1  0  0  0  0
M  END
>  <DFT-ENERGY>
-2212.76499816

$$$$
