
  CDK     08132414483D

 65 68  0  0  0  0  0  0  0  0999 V2000
    0.1683    0.9127    1.4986 Ru  0  0  0  0  0  0  0  0  0  0  0  0
    1.3963    0.9171    3.0213 C   0  0  0  0  0  0  0  0  0  0  0  0
    2.4112    1.2976    2.8077 H   0  0  0  0  0  0  0  0  0  0  0  0
    0.3727    2.0587    3.4151 C   0  0  0  0  0  0  0  0  0  0  0  0
    0.9613    2.9909    3.4911 H   0  0  0  0  0  0  0  0  0  0  0  0
   -0.8013    2.3558    2.3955 C   0  0  0  0  0  0  0  0  0  0  0  0
   -1.7973    2.0825    2.7876 H   0  0  0  0  0  0  0  0  0  0  0  0
   -0.7203    3.3477    1.9160 H   0  0  0  0  0  0  0  0  0  0  0  0
   -0.1079    1.7338    4.3558 H   0  0  0  0  0  0  0  0  0  0  0  0
    1.3349    0.0321    3.6796 H   0  0  0  0  0  0  0  0  0  0  0  0
    1.5497    2.5759    0.4726 Cl  0  0  0  0  0  0  0  0  0  0  0  0
   -1.1958   -0.6479    2.6952 Cl  0  0  0  0  0  0  0  0  0  0  0  0
   -0.9748    0.0358   -1.1751 N   0  0  0  0  0  0  0  0  0  0  0  0
    0.7952   -1.1130   -0.6739 N   0  0  0  0  0  0  0  0  0  0  0  0
   -0.0151   -0.1156   -0.2186 C   0  0  0  0  0  0  0  0  0  0  0  0
   -0.7728   -0.8666   -2.2388 C   0  0  0  0  0  0  0  0  0  0  0  0
   -1.6847   -0.9046   -3.4143 C   0  0  0  0  0  0  0  0  0  0  0  0
    0.3493   -1.5951   -1.9208 C   0  0  0  0  0  0  0  0  0  0  0  0
    1.0620   -2.6890   -2.6351 C   0  0  0  0  0  0  0  0  0  0  0  0
   -2.0432    0.9983   -1.0860 C   0  0  0  0  0  0  0  0  0  0  0  0
   -3.2599    0.6057   -0.4860 C   0  0  0  0  0  0  0  0  0  0  0  0
   -4.2728    1.5749   -0.3841 C   0  0  0  0  0  0  0  0  0  0  0  0
   -5.2277    1.2910    0.0849 H   0  0  0  0  0  0  0  0  0  0  0  0
   -4.1021    2.8838   -0.8694 C   0  0  0  0  0  0  0  0  0  0  0  0
   -2.8911    3.2125   -1.5040 C   0  0  0  0  0  0  0  0  0  0  0  0
   -2.7542    4.2226   -1.9202 H   0  0  0  0  0  0  0  0  0  0  0  0
   -1.8433    2.2843   -1.6343 C   0  0  0  0  0  0  0  0  0  0  0  0
   -3.4632   -0.7922    0.0287 C   0  0  0  0  0  0  0  0  0  0  0  0
   -2.8570   -0.9578    0.9465 H   0  0  0  0  0  0  0  0  0  0  0  0
   -3.1431   -1.5548   -0.7101 H   0  0  0  0  0  0  0  0  0  0  0  0
   -4.5269   -0.9692    0.2741 H   0  0  0  0  0  0  0  0  0  0  0  0
   -5.1908    3.9142   -0.7049 C   0  0  0  0  0  0  0  0  0  0  0  0
   -6.1961    3.4494   -0.7025 H   0  0  0  0  0  0  0  0  0  0  0  0
   -5.1595    4.6738   -1.5102 H   0  0  0  0  0  0  0  0  0  0  0  0
   -5.0783    4.4545    0.2595 H   0  0  0  0  0  0  0  0  0  0  0  0
   -0.5596    2.6493   -2.3266 C   0  0  0  0  0  0  0  0  0  0  0  0
    0.2657    2.7456   -1.5870 H   0  0  0  0  0  0  0  0  0  0  0  0
   -0.6631    3.6106   -2.8636 H   0  0  0  0  0  0  0  0  0  0  0  0
   -0.2486    1.8734   -3.0554 H   0  0  0  0  0  0  0  0  0  0  0  0
    1.9488   -1.5909    0.0452 C   0  0  0  0  0  0  0  0  0  0  0  0
    3.2016   -0.9903   -0.2083 C   0  0  0  0  0  0  0  0  0  0  0  0
    4.3022   -1.4527    0.5341 C   0  0  0  0  0  0  0  0  0  0  0  0
    5.2872   -0.9942    0.3559 H   0  0  0  0  0  0  0  0  0  0  0  0
    4.1796   -2.4821    1.4841 C   0  0  0  0  0  0  0  0  0  0  0  0
    2.9214   -3.0840    1.6643 C   0  0  0  0  0  0  0  0  0  0  0  0
    2.8153   -3.9148    2.3789 H   0  0  0  0  0  0  0  0  0  0  0  0
    1.7861   -2.6628    0.9503 C   0  0  0  0  0  0  0  0  0  0  0  0
    3.3531    0.1047   -1.2272 C   0  0  0  0  0  0  0  0  0  0  0  0
    2.8534   -0.1493   -2.1842 H   0  0  0  0  0  0  0  0  0  0  0  0
    4.4213    0.3036   -1.4335 H   0  0  0  0  0  0  0  0  0  0  0  0
    2.8843    1.0434   -0.8580 H   0  0  0  0  0  0  0  0  0  0  0  0
    5.3690   -2.9253    2.2984 C   0  0  0  0  0  0  0  0  0  0  0  0
    5.4359   -2.3457    3.2440 H   0  0  0  0  0  0  0  0  0  0  0  0
    6.3195   -2.7689    1.7519 H   0  0  0  0  0  0  0  0  0  0  0  0
    5.2982   -3.9950    2.5764 H   0  0  0  0  0  0  0  0  0  0  0  0
    0.4510   -3.3254    1.1469 C   0  0  0  0  0  0  0  0  0  0  0  0
   -0.2417   -2.6470    1.6921 H   0  0  0  0  0  0  0  0  0  0  0  0
    0.5586   -4.2589    1.7301 H   0  0  0  0  0  0  0  0  0  0  0  0
   -0.0341   -3.5712    0.1802 H   0  0  0  0  0  0  0  0  0  0  0  0
    0.5544   -2.9179   -3.5903 H   0  0  0  0  0  0  0  0  0  0  0  0
    1.0953   -3.6180   -2.0293 H   0  0  0  0  0  0  0  0  0  0  0  0
    2.1131   -2.4132   -2.8591 H   0  0  0  0  0  0  0  0  0  0  0  0
   -1.7111    0.0713   -3.9417 H   0  0  0  0  0  0  0  0  0  0  0  0
   -1.3522   -1.6762   -4.1329 H   0  0  0  0  0  0  0  0  0  0  0  0
   -2.7276   -1.1366   -3.1148 H   0  0  0  0  0  0  0  0  0  0  0  0
  2  4  1  0  0  0  0
  2  1  1  0  0  0  0
  2  3  1  0  0  0  0
  4  6  1  0  0  0  0
  4  5  1  0  0  0  0
  6  1  1  0  0  0  0
  6  8  1  0  0  0  0
  7  6  1  0  0  0  0
  9  4  1  0  0  0  0
 10  2  1  0  0  0  0
  1 11  1  0  0  0  0
  1 12  1  0  0  0  0
 13 15  1  0  0  0  0
 13 16  1  0  0  0  0
 13 20  1  0  0  0  0
 14 15  1  0  0  0  0
 14 18  1  0  0  0  0
 14 40  1  0  0  0  0
 16 17  1  0  0  0  0
 16 18  2  0  0  0  0
 18 19  1  0  0  0  0
 20 21  2  0  0  0  0
 20 27  1  0  0  0  0
 21 22  1  0  0  0  0
 21 28  1  0  0  0  0
 22 23  1  0  0  0  0
 22 24  2  0  0  0  0
 24 25  1  0  0  0  0
 24 32  1  0  0  0  0
 25 26  1  0  0  0  0
 25 27  2  0  0  0  0
 27 36  1  0  0  0  0
 28 29  1  0  0  0  0
 28 30  1  0  0  0  0
 28 31  1  0  0  0  0
 32 33  1  0  0  0  0
 32 34  1  0  0  0  0
 32 35  1  0  0  0  0
 36 37  1  0  0  0  0
 36 38  1  0  0  0  0
 36 39  1  0  0  0  0
 40 41  2  0  0  0  0
 40 47  1  0  0  0  0
 41 42  1  0  0  0  0
 41 48  1  0  0  0  0
 42 43  1  0  0  0  0
 42 44  2  0  0  0  0
 44 45  1  0  0  0  0
 44 52  1  0  0  0  0
 45 46  1  0  0  0  0
 45 47  2  0  0  0  0
 47 56  1  0  0  0  0
 48 49  1  0  0  0  0
 48 50  1  0  0  0  0
 48 51  1  0  0  0  0
 52 53  1  0  0  0  0
 52 54  1  0  0  0  0
 52 55  1  0  0  0  0
 56 57  1  0  0  0  0
 56 58  1  0  0  0  0
 56 59  1  0  0  0  0
 19 60  1  0  0  0  0
 19 61  1  0  0  0  0
 19 62  1  0  0  0  0
 17 63  1  0  0  0  0
 17 64  1  0  0  0  0
 17 65  1  0  0  0  0
  1 15  1  0  0  0  0
M  END
>  <DFT-ENERGY>
-2134.25437019

$$$$
