
  CDK     08152421353D

 80 84  0  0  0  0  0  0  0  0999 V2000
    1.4967   -0.6407    0.3222 Ru  0  0  0  0  0  0  0  0  0  0  0  0
    3.2207   -0.6389   -0.6229 C   0  0  0  0  0  0  0  0  0  0  0  0
    3.2651   -1.2619   -1.5332 H   0  0  0  0  0  0  0  0  0  0  0  0
    3.5922   -1.4473    0.6948 C   0  0  0  0  0  0  0  0  0  0  0  0
    3.9351   -2.4424    0.3576 H   0  0  0  0  0  0  0  0  0  0  0  0
    2.4204   -1.6961    1.7120 C   0  0  0  0  0  0  0  0  0  0  0  0
    2.5347   -1.1617    2.6711 H   0  0  0  0  0  0  0  0  0  0  0  0
    2.1054   -2.7511    1.7799 H   0  0  0  0  0  0  0  0  0  0  0  0
    4.3592   -0.8509    1.2207 H   0  0  0  0  0  0  0  0  0  0  0  0
    3.7276    0.3402   -0.6799 H   0  0  0  0  0  0  0  0  0  0  0  0
    0.9939   -2.7194   -0.7405 Cl  0  0  0  0  0  0  0  0  0  0  0  0
    2.2391    1.3420    1.4583 Cl  0  0  0  0  0  0  0  0  0  0  0  0
   -0.8632    0.9632   -0.6898 N   0  0  0  0  0  0  0  0  0  0  0  0
   -2.3032    1.3026   -0.2825 C   0  0  0  0  0  0  0  0  0  0  0  0
   -2.3196    0.7556    1.1542 C   0  0  0  0  0  0  0  0  0  0  0  0
   -3.3288    0.4322    1.4706 H   0  0  0  0  0  0  0  0  0  0  0  0
   -1.9793    1.5495    1.8483 H   0  0  0  0  0  0  0  0  0  0  0  0
   -1.3059   -0.4056    1.1769 C   0  0  0  0  0  0  0  0  0  0  0  0
   -0.2947    0.0698    0.1247 C   0  0  0  0  0  0  0  0  0  0  0  0
   -1.9229   -1.7967    0.7638 C   0  0  0  0  0  0  0  0  0  0  0  0
   -1.6838   -2.0580   -0.2840 H   0  0  0  0  0  0  0  0  0  0  0  0
   -3.0240   -1.7173    0.8577 H   0  0  0  0  0  0  0  0  0  0  0  0
   -1.3658   -2.8647    1.7347 C   0  0  0  0  0  0  0  0  0  0  0  0
   -0.6033   -3.4851    1.2185 H   0  0  0  0  0  0  0  0  0  0  0  0
   -2.1606   -3.5453    2.1023 H   0  0  0  0  0  0  0  0  0  0  0  0
   -0.7329   -2.0669    2.8429 C   0  0  0  0  0  0  0  0  0  0  0  0
   -0.1646   -2.5231    4.0418 C   0  0  0  0  0  0  0  0  0  0  0  0
   -0.1661   -3.5862    4.3220 H   0  0  0  0  0  0  0  0  0  0  0  0
    0.4381   -1.6173    4.9245 C   0  0  0  0  0  0  0  0  0  0  0  0
    0.4635   -0.2243    4.6133 C   0  0  0  0  0  0  0  0  0  0  0  0
   -0.1096    0.2286    3.4153 C   0  0  0  0  0  0  0  0  0  0  0  0
   -0.0562    1.2873    3.1393 H   0  0  0  0  0  0  0  0  0  0  0  0
   -0.6867   -0.6997    2.5361 C   0  0  0  0  0  0  0  0  0  0  0  0
    0.9489   -2.1004    6.1088 O   0  0  0  0  0  0  0  0  0  0  0  0
    2.3697   -1.9589    6.2533 C   0  0  0  0  0  0  0  0  0  0  0  0
    2.9038   -2.4909    5.4338 H   0  0  0  0  0  0  0  0  0  0  0  0
    2.6782   -0.8939    6.2640 H   0  0  0  0  0  0  0  0  0  0  0  0
    2.6263   -2.4312    7.2201 H   0  0  0  0  0  0  0  0  0  0  0  0
    1.0658    0.5873    5.5379 O   0  0  0  0  0  0  0  0  0  0  0  0
    1.2009    1.9651    5.1840 C   0  0  0  0  0  0  0  0  0  0  0  0
    0.2077    2.4612    5.1054 H   0  0  0  0  0  0  0  0  0  0  0  0
    1.7735    2.4302    6.0065 H   0  0  0  0  0  0  0  0  0  0  0  0
    1.7462    2.0831    4.2226 H   0  0  0  0  0  0  0  0  0  0  0  0
   -2.5593    2.8059   -0.3146 C   0  0  0  0  0  0  0  0  0  0  0  0
   -2.4460    3.2216   -1.3341 H   0  0  0  0  0  0  0  0  0  0  0  0
   -1.8824    3.3448    0.3716 H   0  0  0  0  0  0  0  0  0  0  0  0
   -3.6009    2.9909    0.0155 H   0  0  0  0  0  0  0  0  0  0  0  0
   -3.2944    0.5977   -1.2140 C   0  0  0  0  0  0  0  0  0  0  0  0
   -3.1937    0.9834   -2.2464 H   0  0  0  0  0  0  0  0  0  0  0  0
   -4.3276    0.8074   -0.8734 H   0  0  0  0  0  0  0  0  0  0  0  0
   -3.1489   -0.4966   -1.2313 H   0  0  0  0  0  0  0  0  0  0  0  0
   -0.3481    1.4894   -1.9455 C   0  0  0  0  0  0  0  0  0  0  0  0
   -0.5223    0.7277   -3.1375 C   0  0  0  0  0  0  0  0  0  0  0  0
    0.1884    2.8083   -1.9925 C   0  0  0  0  0  0  0  0  0  0  0  0
   -0.2872    1.3672   -4.3701 C   0  0  0  0  0  0  0  0  0  0  0  0
    0.1383    2.6948   -4.4386 C   0  0  0  0  0  0  0  0  0  0  0  0
   -0.4330    0.7956   -5.2976 H   0  0  0  0  0  0  0  0  0  0  0  0
    0.4074    3.3879   -3.2569 C   0  0  0  0  0  0  0  0  0  0  0  0
    0.8115    4.4087   -3.3073 H   0  0  0  0  0  0  0  0  0  0  0  0
    0.2965    3.1775   -5.4140 H   0  0  0  0  0  0  0  0  0  0  0  0
   -0.8270   -0.7658   -3.1737 C   0  0  0  0  0  0  0  0  0  0  0  0
   -0.9622   -1.1283   -2.1366 H   0  0  0  0  0  0  0  0  0  0  0  0
    0.3982   -1.5019   -3.7524 C   0  0  0  0  0  0  0  0  0  0  0  0
    0.2557   -2.5973   -3.6798 H   0  0  0  0  0  0  0  0  0  0  0  0
    1.3164   -1.2525   -3.1899 H   0  0  0  0  0  0  0  0  0  0  0  0
    0.5503   -1.2349   -4.8187 H   0  0  0  0  0  0  0  0  0  0  0  0
   -2.0741   -1.1248   -3.9992 C   0  0  0  0  0  0  0  0  0  0  0  0
   -2.2472   -2.2193   -3.9615 H   0  0  0  0  0  0  0  0  0  0  0  0
   -1.9423   -0.8515   -5.0664 H   0  0  0  0  0  0  0  0  0  0  0  0
   -2.9898   -0.6218   -3.6366 H   0  0  0  0  0  0  0  0  0  0  0  0
    0.6643    3.5891   -0.7725 C   0  0  0  0  0  0  0  0  0  0  0  0
    0.4121    3.0102    0.1380 H   0  0  0  0  0  0  0  0  0  0  0  0
    0.0679    5.0040   -0.6701 C   0  0  0  0  0  0  0  0  0  0  0  0
    0.4006    5.6422   -1.5145 H   0  0  0  0  0  0  0  0  0  0  0  0
    0.4173    5.4928    0.2618 H   0  0  0  0  0  0  0  0  0  0  0  0
   -1.0380    5.0104   -0.6670 H   0  0  0  0  0  0  0  0  0  0  0  0
    2.2022    3.6960   -0.8324 C   0  0  0  0  0  0  0  0  0  0  0  0
    2.6690    2.6993   -0.9268 H   0  0  0  0  0  0  0  0  0  0  0  0
    2.5907    4.1556    0.0977 H   0  0  0  0  0  0  0  0  0  0  0  0
    2.5175    4.3239   -1.6917 H   0  0  0  0  0  0  0  0  0  0  0  0
  2  4  1  0  0  0  0
  2  1  1  0  0  0  0
  2  3  1  0  0  0  0
  4  6  1  0  0  0  0
  4  5  1  0  0  0  0
  6  1  1  0  0  0  0
  6  8  1  0  0  0  0
  7  6  1  0  0  0  0
  9  4  1  0  0  0  0
 10  2  1  0  0  0  0
  1 11  1  0  0  0  0
  1 12  1  0  0  0  0
 13 14  1  0  0  0  0
 13 52  1  0  0  0  0
 14 15  1  0  0  0  0
 14 44  1  0  0  0  0
 14 48  1  0  0  0  0
 15 16  1  0  0  0  0
 15 17  1  0  0  0  0
 15 18  1  0  0  0  0
 18 19  1  0  0  0  0
 18 20  1  0  0  0  0
 18 33  1  0  0  0  0
 19 13  1  0  0  0  0
 20 21  1  0  0  0  0
 20 22  1  0  0  0  0
 20 23  1  0  0  0  0
 23 24  1  0  0  0  0
 23 25  1  0  0  0  0
 23 26  1  0  0  0  0
 26 27  2  0  0  0  0
 26 33  1  0  0  0  0
 27 28  1  0  0  0  0
 27 29  1  0  0  0  0
 29 30  2  0  0  0  0
 29 34  1  0  0  0  0
 30 31  1  0  0  0  0
 30 39  1  0  0  0  0
 31 32  1  0  0  0  0
 31 33  2  0  0  0  0
 34 35  1  0  0  0  0
 35 36  1  0  0  0  0
 35 37  1  0  0  0  0
 35 38  1  0  0  0  0
 39 40  1  0  0  0  0
 40 41  1  0  0  0  0
 40 42  1  0  0  0  0
 40 43  1  0  0  0  0
 44 45  1  0  0  0  0
 44 46  1  0  0  0  0
 44 47  1  0  0  0  0
 48 49  1  0  0  0  0
 48 50  1  0  0  0  0
 48 51  1  0  0  0  0
 52 53  2  0  0  0  0
 52 54  1  0  0  0  0
 53 55  1  0  0  0  0
 53 61  1  0  0  0  0
 54 58  2  0  0  0  0
 54 71  1  0  0  0  0
 55 56  2  0  0  0  0
 55 57  1  0  0  0  0
 56 58  1  0  0  0  0
 56 60  1  0  0  0  0
 58 59  1  0  0  0  0
 61 62  1  0  0  0  0
 61 63  1  0  0  0  0
 61 67  1  0  0  0  0
 63 64  1  0  0  0  0
 63 65  1  0  0  0  0
 63 66  1  0  0  0  0
 67 68  1  0  0  0  0
 67 69  1  0  0  0  0
 67 70  1  0  0  0  0
 71 72  1  0  0  0  0
 71 73  1  0  0  0  0
 71 77  1  0  0  0  0
 73 74  1  0  0  0  0
 73 75  1  0  0  0  0
 73 76  1  0  0  0  0
 77 78  1  0  0  0  0
 77 79  1  0  0  0  0
 77 80  1  0  0  0  0
  1 19  1  0  0  0  0
M  END
>  <DFT-ENERGY>
-2425.51451202

$$$$
