
  CDK     08152413413D

 80 85  0  0  0  0  0  0  0  0999 V2000
    1.1306   -0.9169   -3.3836 H   0  0  0  0  0  0  0  0  0  0  0  0
    2.3590   -0.8511   -3.4117 C   0  0  0  0  0  0  0  0  0  0  0  0
    2.3323   -0.6756   -4.5069 H   0  0  0  0  0  0  0  0  0  0  0  0
    2.6699   -2.1764   -2.8181 C   0  0  0  0  0  0  0  0  0  0  0  0
    3.6045   -2.3046   -2.2528 H   0  0  0  0  0  0  0  0  0  0  0  0
    2.3186   -3.0561   -3.3837 H   0  0  0  0  0  0  0  0  0  0  0  0
    1.2055   -1.2518   -1.6434 Ru  0  0  0  0  0  0  0  0  0  0  0  0
    2.4887    0.2402   -2.4106 C   0  0  0  0  0  0  0  0  0  0  0  0
    3.4227    0.3129   -1.8358 H   0  0  0  0  0  0  0  0  0  0  0  0
    2.0090    1.2011   -2.6678 H   0  0  0  0  0  0  0  0  0  0  0  0
    2.9372   -1.3233    0.0398 Cl  0  0  0  0  0  0  0  0  0  0  0  0
   -0.6197   -2.2663   -2.8437 Cl  0  0  0  0  0  0  0  0  0  0  0  0
   -0.6708   -0.6571    0.5547 N   0  0  0  0  0  0  0  0  0  0  0  0
   -1.6795   -1.1947    1.5823 C   0  0  0  0  0  0  0  0  0  0  0  0
   -1.5332   -2.7098    1.3639 C   0  0  0  0  0  0  0  0  0  0  0  0
   -2.3223   -3.0524    0.6654 H   0  0  0  0  0  0  0  0  0  0  0  0
   -1.6392   -3.2692    2.3109 H   0  0  0  0  0  0  0  0  0  0  0  0
   -0.1469   -2.9397    0.6970 C   0  0  0  0  0  0  0  0  0  0  0  0
    0.1221   -1.5924    0.0283 C   0  0  0  0  0  0  0  0  0  0  0  0
   -0.1510   -4.1550   -0.2719 C   0  0  0  0  0  0  0  0  0  0  0  0
    0.7115   -4.0434   -0.9586 H   0  0  0  0  0  0  0  0  0  0  0  0
   -1.0645   -4.1897   -0.8908 H   0  0  0  0  0  0  0  0  0  0  0  0
    0.0664   -5.3820    0.6311 C   0  0  0  0  0  0  0  0  0  0  0  0
    0.5212   -6.2341    0.0882 H   0  0  0  0  0  0  0  0  0  0  0  0
   -0.8957   -5.7476    1.0562 H   0  0  0  0  0  0  0  0  0  0  0  0
    0.9521   -4.8209    1.7141 C   0  0  0  0  0  0  0  0  0  0  0  0
    1.7694   -5.5017    2.6266 C   0  0  0  0  0  0  0  0  0  0  0  0
    1.8436   -6.5987    2.6344 H   0  0  0  0  0  0  0  0  0  0  0  0
    2.5345   -4.7880    3.5571 C   0  0  0  0  0  0  0  0  0  0  0  0
    2.4731   -3.3662    3.5729 C   0  0  0  0  0  0  0  0  0  0  0  0
    1.6456   -2.6877    2.6614 C   0  0  0  0  0  0  0  0  0  0  0  0
    1.6418   -1.5943    2.6411 H   0  0  0  0  0  0  0  0  0  0  0  0
    0.8922   -3.4164    1.7315 C   0  0  0  0  0  0  0  0  0  0  0  0
    3.2972   -5.4908    4.4646 O   0  0  0  0  0  0  0  0  0  0  0  0
    4.7146   -5.3178    4.3209 C   0  0  0  0  0  0  0  0  0  0  0  0
    5.0517   -5.6358    3.3091 H   0  0  0  0  0  0  0  0  0  0  0  0
    5.0205   -4.2661    4.4962 H   0  0  0  0  0  0  0  0  0  0  0  0
    5.1799   -5.9718    5.0824 H   0  0  0  0  0  0  0  0  0  0  0  0
    3.2620   -2.7441    4.5087 O   0  0  0  0  0  0  0  0  0  0  0  0
    3.2562   -1.3209    4.5050 C   0  0  0  0  0  0  0  0  0  0  0  0
    2.2490   -0.9162    4.7504 H   0  0  0  0  0  0  0  0  0  0  0  0
    3.9717   -1.0130    5.2886 H   0  0  0  0  0  0  0  0  0  0  0  0
    3.5788   -0.9099    3.5225 H   0  0  0  0  0  0  0  0  0  0  0  0
   -1.3036   -0.7390    2.9936 C   0  0  0  0  0  0  0  0  0  0  0  0
   -1.3499    0.3637    3.0716 H   0  0  0  0  0  0  0  0  0  0  0  0
   -0.2987   -1.0860    3.2908 H   0  0  0  0  0  0  0  0  0  0  0  0
   -2.0355   -1.1589    3.7115 H   0  0  0  0  0  0  0  0  0  0  0  0
   -3.0970   -0.7233    1.2645 C   0  0  0  0  0  0  0  0  0  0  0  0
   -3.1943    0.3773    1.3330 H   0  0  0  0  0  0  0  0  0  0  0  0
   -3.7863   -1.1737    2.0063 H   0  0  0  0  0  0  0  0  0  0  0  0
   -3.4157   -1.0536    0.2602 H   0  0  0  0  0  0  0  0  0  0  0  0
   -0.6649    0.7763    0.2616 C   0  0  0  0  0  0  0  0  0  0  0  0
   -1.5771    1.3093   -0.6965 C   0  0  0  0  0  0  0  0  0  0  0  0
    0.1519    1.6458    1.0439 C   0  0  0  0  0  0  0  0  0  0  0  0
   -1.7277    2.7076   -0.7665 C   0  0  0  0  0  0  0  0  0  0  0  0
   -0.9998    3.5692    0.0542 C   0  0  0  0  0  0  0  0  0  0  0  0
   -2.4354    3.1241   -1.4969 H   0  0  0  0  0  0  0  0  0  0  0  0
   -0.0497    3.0341    0.9244 C   0  0  0  0  0  0  0  0  0  0  0  0
    0.5712    3.7098    1.5292 H   0  0  0  0  0  0  0  0  0  0  0  0
   -1.1500    4.6568   -0.0063 H   0  0  0  0  0  0  0  0  0  0  0  0
   -2.3183    0.4884   -1.7443 C   0  0  0  0  0  0  0  0  0  0  0  0
   -2.1344   -0.5867   -1.5569 H   0  0  0  0  0  0  0  0  0  0  0  0
   -1.7201    0.8153   -3.1285 C   0  0  0  0  0  0  0  0  0  0  0  0
   -2.1301    0.1321   -3.8973 H   0  0  0  0  0  0  0  0  0  0  0  0
   -0.6199    0.6898   -3.1201 H   0  0  0  0  0  0  0  0  0  0  0  0
   -1.9501    1.8608   -3.4209 H   0  0  0  0  0  0  0  0  0  0  0  0
   -3.8348    0.7455   -1.7777 C   0  0  0  0  0  0  0  0  0  0  0  0
   -4.3122    0.0714   -2.5171 H   0  0  0  0  0  0  0  0  0  0  0  0
   -4.0640    1.7850   -2.0900 H   0  0  0  0  0  0  0  0  0  0  0  0
   -4.3210    0.5794   -0.7981 H   0  0  0  0  0  0  0  0  0  0  0  0
    1.3147    1.1991    1.9224 C   0  0  0  0  0  0  0  0  0  0  0  0
    1.3669    0.0951    1.8902 H   0  0  0  0  0  0  0  0  0  0  0  0
    1.1980    1.6728    3.3812 C   0  0  0  0  0  0  0  0  0  0  0  0
    1.1485    2.7793    3.4407 H   0  0  0  0  0  0  0  0  0  0  0  0
    2.0941    1.3602    3.9539 H   0  0  0  0  0  0  0  0  0  0  0  0
    0.3062    1.2704    3.8966 H   0  0  0  0  0  0  0  0  0  0  0  0
    2.6308    1.7294    1.3191 C   0  0  0  0  0  0  0  0  0  0  0  0
    2.7205    1.4504    0.2545 H   0  0  0  0  0  0  0  0  0  0  0  0
    3.4996    1.2934    1.8517 H   0  0  0  0  0  0  0  0  0  0  0  0
    2.6895    2.8340    1.4089 H   0  0  0  0  0  0  0  0  0  0  0  0
  1  2  1  0  0  0  0
  1  7  1  0  0  0  0
  2  3  1  0  0  0  0
  2  4  1  0  0  0  0
  4  5  1  0  0  0  0
  4  6  1  0  0  0  0
  7  8  1  0  0  0  0
  4  7  1  0  0  0  0
  2  8  1  0  0  0  0
  8  9  1  0  0  0  0
  8 10  1  0  0  0  0
  7 11  1  0  0  0  0
  7 12  1  0  0  0  0
 13 14  1  0  0  0  0
 13 52  1  0  0  0  0
 14 15  1  0  0  0  0
 14 44  1  0  0  0  0
 14 48  1  0  0  0  0
 15 16  1  0  0  0  0
 15 17  1  0  0  0  0
 15 18  1  0  0  0  0
 18 19  1  0  0  0  0
 18 20  1  0  0  0  0
 18 33  1  0  0  0  0
 13 19  1  0  0  0  0
 20 21  1  0  0  0  0
 20 22  1  0  0  0  0
 20 23  1  0  0  0  0
 23 24  1  0  0  0  0
 23 25  1  0  0  0  0
 23 26  1  0  0  0  0
 26 27  2  0  0  0  0
 26 33  1  0  0  0  0
 27 28  1  0  0  0  0
 27 29  1  0  0  0  0
 29 30  2  0  0  0  0
 29 34  1  0  0  0  0
 30 31  1  0  0  0  0
 30 39  1  0  0  0  0
 31 32  1  0  0  0  0
 31 33  2  0  0  0  0
 34 35  1  0  0  0  0
 35 36  1  0  0  0  0
 35 37  1  0  0  0  0
 35 38  1  0  0  0  0
 39 40  1  0  0  0  0
 40 41  1  0  0  0  0
 40 42  1  0  0  0  0
 40 43  1  0  0  0  0
 44 45  1  0  0  0  0
 44 46  1  0  0  0  0
 44 47  1  0  0  0  0
 48 49  1  0  0  0  0
 48 50  1  0  0  0  0
 48 51  1  0  0  0  0
 52 53  2  0  0  0  0
 52 54  1  0  0  0  0
 53 55  1  0  0  0  0
 53 61  1  0  0  0  0
 54 58  2  0  0  0  0
 54 71  1  0  0  0  0
 55 56  2  0  0  0  0
 55 57  1  0  0  0  0
 56 58  1  0  0  0  0
 56 60  1  0  0  0  0
 58 59  1  0  0  0  0
 61 62  1  0  0  0  0
 61 63  1  0  0  0  0
 61 67  1  0  0  0  0
 63 64  1  0  0  0  0
 63 65  1  0  0  0  0
 63 66  1  0  0  0  0
 67 68  1  0  0  0  0
 67 69  1  0  0  0  0
 67 70  1  0  0  0  0
 71 72  1  0  0  0  0
 71 73  1  0  0  0  0
 71 77  1  0  0  0  0
 73 74  1  0  0  0  0
 73 75  1  0  0  0  0
 73 76  1  0  0  0  0
 77 78  1  0  0  0  0
 77 79  1  0  0  0  0
 77 80  1  0  0  0  0
  7 19  1  0  0  0  0
M  END
>  <DFT-ENERGY>
-2425.45749117

$$$$
