
  CDK     08132416113D

 84 89  0  0  0  0  0  0  0  0999 V2000
    0.4272    4.3463   -1.6840 C   0  0  0  0  0  0  0  0  0  0  0  0
    1.4372    4.0780   -2.0419 H   0  0  0  0  0  0  0  0  0  0  0  0
    0.1786    5.3796   -2.0150 H   0  0  0  0  0  0  0  0  0  0  0  0
   -0.3050    3.6735   -2.1749 H   0  0  0  0  0  0  0  0  0  0  0  0
    0.3214    4.2791   -0.1776 C   0  0  0  0  0  0  0  0  0  0  0  0
   -0.6816    4.4851    0.2410 H   0  0  0  0  0  0  0  0  0  0  0  0
    1.4013    4.5906    0.6888 C   0  0  0  0  0  0  0  0  0  0  0  0
    2.4022    4.6522    0.2259 H   0  0  0  0  0  0  0  0  0  0  0  0
    1.1593    5.3855    1.9523 C   0  0  0  0  0  0  0  0  0  0  0  0
    2.0127    5.3473    2.6551 H   0  0  0  0  0  0  0  0  0  0  0  0
    1.0040    6.4499    1.6720 H   0  0  0  0  0  0  0  0  0  0  0  0
    0.2450    5.0298    2.4670 H   0  0  0  0  0  0  0  0  0  0  0  0
    2.0077    2.6914    1.8768 C   0  0  0  0  0  0  0  0  0  0  0  0
    1.6846    2.9283    2.9141 H   0  0  0  0  0  0  0  0  0  0  0  0
    3.1016    2.6856    1.6727 H   0  0  0  0  0  0  0  0  0  0  0  0
    0.7992    2.2643    0.5712 Ru  0  0  0  0  0  0  0  0  0  0  0  0
   -1.1113    2.5785    2.0044 Cl  0  0  0  0  0  0  0  0  0  0  0  0
    2.5648    1.9410   -1.0261 Cl  0  0  0  0  0  0  0  0  0  0  0  0
    0.4483    0.3094    0.6583 C   0  0  0  0  0  0  0  0  0  0  0  0
    0.9111   -0.6144    1.5346 N   0  0  0  0  0  0  0  0  0  0  0  0
    0.4218   -1.9833    1.1946 C   0  0  0  0  0  0  0  0  0  0  0  0
   -0.7046   -1.6777    0.1553 C   0  0  0  0  0  0  0  0  0  0  0  0
   -0.4187   -0.2781   -0.1967 N   0  0  0  0  0  0  0  0  0  0  0  0
    1.7474   -0.3609    2.6738 C   0  0  0  0  0  0  0  0  0  0  0  0
    3.3419    0.1473    4.9470 C   0  0  0  0  0  0  0  0  0  0  0  0
    1.1274   -0.2024    3.9403 C   0  0  0  0  0  0  0  0  0  0  0  0
    3.1534   -0.2858    2.5281 C   0  0  0  0  0  0  0  0  0  0  0  0
    3.9201   -0.0185    3.6803 C   0  0  0  0  0  0  0  0  0  0  0  0
    1.9430    0.0442    5.0554 C   0  0  0  0  0  0  0  0  0  0  0  0
    5.0136    0.0561    3.5732 H   0  0  0  0  0  0  0  0  0  0  0  0
    1.4638    0.1730    6.0388 H   0  0  0  0  0  0  0  0  0  0  0  0
   -0.0194   -2.4387    2.1029 H   0  0  0  0  0  0  0  0  0  0  0  0
   -0.5816   -2.3351   -0.7287 H   0  0  0  0  0  0  0  0  0  0  0  0
    3.8504   -0.4902    1.2110 C   0  0  0  0  0  0  0  0  0  0  0  0
    4.8431   -0.0006    1.2238 H   0  0  0  0  0  0  0  0  0  0  0  0
    3.2810   -0.0697    0.3612 H   0  0  0  0  0  0  0  0  0  0  0  0
    4.0131   -1.5704    1.0179 H   0  0  0  0  0  0  0  0  0  0  0  0
   -0.3679   -0.2434    4.0910 C   0  0  0  0  0  0  0  0  0  0  0  0
   -0.8266    0.6163    3.5568 H   0  0  0  0  0  0  0  0  0  0  0  0
   -0.6550   -0.1869    5.1578 H   0  0  0  0  0  0  0  0  0  0  0  0
   -0.8168   -1.1637    3.6661 H   0  0  0  0  0  0  0  0  0  0  0  0
    4.1866    0.4270    6.1647 C   0  0  0  0  0  0  0  0  0  0  0  0
    4.0761   -0.3762    6.9228 H   0  0  0  0  0  0  0  0  0  0  0  0
    3.8822    1.3743    6.6561 H   0  0  0  0  0  0  0  0  0  0  0  0
    5.2601    0.5057    5.9074 H   0  0  0  0  0  0  0  0  0  0  0  0
   -0.8770    0.4122   -1.4060 C   0  0  0  0  0  0  0  0  0  0  0  0
   -0.5228    0.7284   -3.8952 C   0  0  0  0  0  0  0  0  0  0  0  0
   -2.7977    1.1332   -2.8704 C   0  0  0  0  0  0  0  0  0  0  0  0
   -2.0387    0.6539   -4.1141 C   0  0  0  0  0  0  0  0  0  0  0  0
   -2.3936    0.3449   -1.6168 C   0  0  0  0  0  0  0  0  0  0  0  0
   -0.0927   -0.0488   -2.6449 C   0  0  0  0  0  0  0  0  0  0  0  0
   -0.2161    1.7915   -3.7749 H   0  0  0  0  0  0  0  0  0  0  0  0
   -2.5828    2.2134   -2.7040 H   0  0  0  0  0  0  0  0  0  0  0  0
   -2.3275   -0.3989   -4.3352 H   0  0  0  0  0  0  0  0  0  0  0  0
   -2.7019   -0.7182   -1.7274 H   0  0  0  0  0  0  0  0  0  0  0  0
   -0.2761   -1.1363   -2.8002 H   0  0  0  0  0  0  0  0  0  0  0  0
   -0.6172    1.4872   -1.2337 H   0  0  0  0  0  0  0  0  0  0  0  0
    0.0237    0.3479   -4.7824 H   0  0  0  0  0  0  0  0  0  0  0  0
   -3.8934    1.0546   -3.0236 H   0  0  0  0  0  0  0  0  0  0  0  0
   -2.3322    1.2533   -5.0007 H   0  0  0  0  0  0  0  0  0  0  0  0
   -2.9112    0.7353   -0.7193 H   0  0  0  0  0  0  0  0  0  0  0  0
    0.9886    0.0976   -2.4463 H   0  0  0  0  0  0  0  0  0  0  0  0
   -2.0923   -1.8790    0.7409 C   0  0  0  0  0  0  0  0  0  0  0  0
   -4.6055   -2.3466    1.9229 C   0  0  0  0  0  0  0  0  0  0  0  0
   -2.7456   -3.1111    0.5596 C   0  0  0  0  0  0  0  0  0  0  0  0
   -2.7057   -0.8773    1.5162 C   0  0  0  0  0  0  0  0  0  0  0  0
   -3.9572   -1.1144    2.1027 C   0  0  0  0  0  0  0  0  0  0  0  0
   -3.9972   -3.3460    1.1479 C   0  0  0  0  0  0  0  0  0  0  0  0
   -2.2688   -3.8937   -0.0515 H   0  0  0  0  0  0  0  0  0  0  0  0
   -2.2132    0.0991    1.6475 H   0  0  0  0  0  0  0  0  0  0  0  0
   -4.4293   -0.3231    2.7031 H   0  0  0  0  0  0  0  0  0  0  0  0
   -4.5018   -4.3112    0.9947 H   0  0  0  0  0  0  0  0  0  0  0  0
   -5.5886   -2.5267    2.3817 H   0  0  0  0  0  0  0  0  0  0  0  0
    1.5450   -2.8657    0.6938 C   0  0  0  0  0  0  0  0  0  0  0  0
    3.7232   -4.4377   -0.1598 C   0  0  0  0  0  0  0  0  0  0  0  0
    2.1312   -3.8026    1.5621 C   0  0  0  0  0  0  0  0  0  0  0  0
    2.0600   -2.7221   -0.6095 C   0  0  0  0  0  0  0  0  0  0  0  0
    3.1391   -3.5067   -1.0347 C   0  0  0  0  0  0  0  0  0  0  0  0
    3.2182   -4.5834    1.1408 C   0  0  0  0  0  0  0  0  0  0  0  0
    1.7362   -3.9105    2.5837 H   0  0  0  0  0  0  0  0  0  0  0  0
    1.6359   -1.9691   -1.2888 H   0  0  0  0  0  0  0  0  0  0  0  0
    3.5362   -3.3815   -2.0523 H   0  0  0  0  0  0  0  0  0  0  0  0
    3.6714   -5.3091    1.8315 H   0  0  0  0  0  0  0  0  0  0  0  0
    4.5744   -5.0489   -0.4931 H   0  0  0  0  0  0  0  0  0  0  0  0
  1  2  1  0  0  0  0
  1  5  1  0  0  0  0
  1  3  1  0  0  0  0
  1  4  1  0  0  0  0
  5  6  1  0  0  0  0
  5 16  1  0  0  0  0
  5  7  1  0  0  0  0
  7  9  1  0  0  0  0
  7  8  1  0  0  0  0
  9 10  1  0  0  0  0
  9 11  1  0  0  0  0
  9 12  1  0  0  0  0
 13 14  1  0  0  0  0
 13 15  1  0  0  0  0
  7 13  1  0  0  0  0
 13 16  1  0  0  0  0
 16 17  1  0  0  0  0
 16 18  1  0  0  0  0
 19 20  1  0  0  0  0
 19 23  1  0  0  0  0
 20 21  1  0  0  0  0
 22 23  1  0  0  0  0
 24 27  2  0  0  0  0
 27 28  1  0  0  0  0
 25 28  2  0  0  0  0
 25 29  1  0  0  0  0
 26 29  2  0  0  0  0
 24 26  1  0  0  0  0
 28 30  1  0  0  0  0
 29 31  1  0  0  0  0
 20 24  1  0  0  0  0
 21 22  1  0  0  0  0
 21 32  1  0  0  0  0
 22 33  1  0  0  0  0
 34 35  1  0  0  0  0
 34 36  1  0  0  0  0
 34 37  1  0  0  0  0
 27 34  1  0  0  0  0
 38 39  1  0  0  0  0
 38 40  1  0  0  0  0
 38 41  1  0  0  0  0
 26 38  1  0  0  0  0
 42 43  1  0  0  0  0
 42 44  1  0  0  0  0
 42 45  1  0  0  0  0
 25 42  1  0  0  0  0
 46 57  1  0  0  0  0
 46 50  1  0  0  0  0
 46 51  1  0  0  0  0
 47 52  1  0  0  0  0
 47 58  1  0  0  0  0
 47 49  1  0  0  0  0
 47 51  1  0  0  0  0
 48 53  1  0  0  0  0
 48 59  1  0  0  0  0
 48 50  1  0  0  0  0
 48 49  1  0  0  0  0
 49 54  1  0  0  0  0
 49 60  1  0  0  0  0
 50 55  1  0  0  0  0
 50 61  1  0  0  0  0
 51 56  1  0  0  0  0
 51 62  1  0  0  0  0
 23 46  1  0  0  0  0
 63 66  2  0  0  0  0
 66 67  1  0  0  0  0
 64 67  2  0  0  0  0
 64 68  1  0  0  0  0
 65 68  2  0  0  0  0
 63 65  1  0  0  0  0
 67 71  1  0  0  0  0
 68 72  1  0  0  0  0
 64 73  1  0  0  0  0
 65 69  1  0  0  0  0
 66 70  1  0  0  0  0
 22 63  1  0  0  0  0
 74 77  2  0  0  0  0
 77 78  1  0  0  0  0
 75 78  2  0  0  0  0
 75 79  1  0  0  0  0
 76 79  2  0  0  0  0
 74 76  1  0  0  0  0
 78 82  1  0  0  0  0
 79 83  1  0  0  0  0
 75 84  1  0  0  0  0
 76 80  1  0  0  0  0
 77 81  1  0  0  0  0
 21 74  1  0  0  0  0
 16 19  1  0  0  0  0
M  END
>  <DFT-ENERGY>
-2482.80576529

$$$$
