dPhSIMesCyclohexyl-0_A1
  CDK     08122417303D

 92 98  0  0  0  0  0  0  0  0999 V2000
    1.7220   -0.4716   -0.7164 Ru  0  0  0  0  0  0  0  0  0  0  0  0
    3.4998   -0.4716   -2.1056 O   0  0  0  0  0  0  0  0  0  0  0  0
    2.9322   -1.4049    0.2877 C   0  0  0  0  0  0  0  0  0  0  0  0
    2.6994   -1.6978    1.3104 H   0  0  0  0  0  0  0  0  0  0  0  0
    3.7353    0.3036   -3.3314 C   0  0  0  0  0  0  0  0  0  0  0  0
    4.1516   -0.3951   -4.0879 H   0  0  0  0  0  0  0  0  0  0  0  0
    2.3140    0.7392   -3.6585 C   0  0  0  0  0  0  0  0  0  0  0  0
    2.2525    1.2404   -4.6278 H   0  0  0  0  0  0  0  0  0  0  0  0
    1.9244    1.4330   -2.8860 H   0  0  0  0  0  0  0  0  0  0  0  0
    1.6351   -0.1377   -3.6755 H   0  0  0  0  0  0  0  0  0  0  0  0
    4.6674    1.4534   -2.9944 C   0  0  0  0  0  0  0  0  0  0  0  0
    4.6626    2.2251   -3.7706 H   0  0  0  0  0  0  0  0  0  0  0  0
    5.7017    1.1288   -2.8402 H   0  0  0  0  0  0  0  0  0  0  0  0
    4.3435    1.9370   -2.0510 H   0  0  0  0  0  0  0  0  0  0  0  0
    4.4920   -1.2700   -1.6006 C   0  0  0  0  0  0  0  0  0  0  0  0
    5.6611   -1.6187   -2.2536 C   0  0  0  0  0  0  0  0  0  0  0  0
    5.8801   -1.2684   -3.2596 H   0  0  0  0  0  0  0  0  0  0  0  0
    6.5623   -2.4498   -1.5961 C   0  0  0  0  0  0  0  0  0  0  0  0
    7.4850   -2.7375   -2.1050 H   0  0  0  0  0  0  0  0  0  0  0  0
    6.3123   -2.9214   -0.3108 C   0  0  0  0  0  0  0  0  0  0  0  0
    7.0370   -3.5662    0.1836 H   0  0  0  0  0  0  0  0  0  0  0  0
    5.1426   -2.5611    0.3308 C   0  0  0  0  0  0  0  0  0  0  0  0
    4.9494   -2.9157    1.3421 H   0  0  0  0  0  0  0  0  0  0  0  0
    4.2071   -1.7457   -0.3086 C   0  0  0  0  0  0  0  0  0  0  0  0
    2.3260    1.7364   -0.1520 Cl  0  0  0  0  0  0  0  0  0  0  0  0
    0.8959   -2.1837   -2.0805 Cl  0  0  0  0  0  0  0  0  0  0  0  0
    0.1144   -0.3767    0.4199 C   0  0  0  0  0  0  0  0  0  0  0  0
   -0.1643   -0.7265    1.7308 N   0  0  0  0  0  0  0  0  0  0  0  0
   -1.5414   -0.3069    2.1899 C   0  0  0  0  0  0  0  0  0  0  0  0
   -2.0504    0.5577    0.9859 C   0  0  0  0  0  0  0  0  0  0  0  0
   -1.0264    0.2756   -0.0757 N   0  0  0  0  0  0  0  0  0  0  0  0
    0.6778   -1.4078    2.6817 C   0  0  0  0  0  0  0  0  0  0  0  0
    2.1033   -2.7217    4.7061 C   0  0  0  0  0  0  0  0  0  0  0  0
    1.3287   -0.6499    3.6871 C   0  0  0  0  0  0  0  0  0  0  0  0
    0.8193   -2.8151    2.6356 C   0  0  0  0  0  0  0  0  0  0  0  0
    1.5229   -3.4566    3.6650 C   0  0  0  0  0  0  0  0  0  0  0  0
    2.0221   -1.3206    4.6997 C   0  0  0  0  0  0  0  0  0  0  0  0
    1.6162   -4.5405    3.6496 H   0  0  0  0  0  0  0  0  0  0  0  0
    2.5101   -0.7494    5.4864 H   0  0  0  0  0  0  0  0  0  0  0  0
   -1.4269    0.3267    3.1091 H   0  0  0  0  0  0  0  0  0  0  0  0
   -3.0539    0.2056    0.6349 H   0  0  0  0  0  0  0  0  0  0  0  0
    0.2786   -3.6071    1.4950 C   0  0  0  0  0  0  0  0  0  0  0  0
    0.7055   -4.6161    1.4335 H   0  0  0  0  0  0  0  0  0  0  0  0
    0.4899   -3.1178    0.5198 H   0  0  0  0  0  0  0  0  0  0  0  0
   -0.8138   -3.7201    1.5656 H   0  0  0  0  0  0  0  0  0  0  0  0
    1.3112    0.8414    3.6435 C   0  0  0  0  0  0  0  0  0  0  0  0
    1.6924    1.2035    2.6659 H   0  0  0  0  0  0  0  0  0  0  0  0
    1.9394    1.3003    4.4169 H   0  0  0  0  0  0  0  0  0  0  0  0
    0.2972    1.2498    3.7584 H   0  0  0  0  0  0  0  0  0  0  0  0
    2.8294   -3.4145    5.8130 C   0  0  0  0  0  0  0  0  0  0  0  0
    2.4284   -3.1274    6.7957 H   0  0  0  0  0  0  0  0  0  0  0  0
    3.8979   -3.1532    5.8105 H   0  0  0  0  0  0  0  0  0  0  0  0
    2.7647   -4.5084    5.7466 H   0  0  0  0  0  0  0  0  0  0  0  0
   -1.2474    0.6616   -1.5029 C   0  0  0  0  0  0  0  0  0  0  0  0
   -2.8781    0.6808   -3.4273 C   0  0  0  0  0  0  0  0  0  0  0  0
   -1.1636    2.5316   -3.1983 C   0  0  0  0  0  0  0  0  0  0  0  0
   -2.5759    2.1649   -3.6756 C   0  0  0  0  0  0  0  0  0  0  0  0
   -0.9536    2.1592   -1.7254 C   0  0  0  0  0  0  0  0  0  0  0  0
   -2.6850    0.3111   -1.9499 C   0  0  0  0  0  0  0  0  0  0  0  0
   -2.2232    0.0504   -4.0613 H   0  0  0  0  0  0  0  0  0  0  0  0
   -0.4096    2.0212   -3.8286 H   0  0  0  0  0  0  0  0  0  0  0  0
   -3.3219    2.7924   -3.1507 H   0  0  0  0  0  0  0  0  0  0  0  0
   -1.6044    2.7825   -1.0823 H   0  0  0  0  0  0  0  0  0  0  0  0
   -3.4269    0.8532   -1.3334 H   0  0  0  0  0  0  0  0  0  0  0  0
   -0.5329    0.0477   -2.1343 H   0  0  0  0  0  0  0  0  0  0  0  0
   -3.9143    0.4480   -3.7365 H   0  0  0  0  0  0  0  0  0  0  0  0
   -0.9889    3.6161   -3.3331 H   0  0  0  0  0  0  0  0  0  0  0  0
   -2.6830    2.3968   -4.7515 H   0  0  0  0  0  0  0  0  0  0  0  0
    0.0882    2.3869   -1.4108 H   0  0  0  0  0  0  0  0  0  0  0  0
   -2.8744   -0.7691   -1.8031 H   0  0  0  0  0  0  0  0  0  0  0  0
   -2.1298    2.0183    1.3822 C   0  0  0  0  0  0  0  0  0  0  0  0
   -2.3374    4.6939    2.1907 C   0  0  0  0  0  0  0  0  0  0  0  0
   -3.3870    2.5753    1.6595 C   0  0  0  0  0  0  0  0  0  0  0  0
   -0.9772    2.8067    1.5099 C   0  0  0  0  0  0  0  0  0  0  0  0
   -1.0836    4.1406    1.9116 C   0  0  0  0  0  0  0  0  0  0  0  0
   -3.4879    3.9096    2.0632 C   0  0  0  0  0  0  0  0  0  0  0  0
   -4.2890    1.9733    1.5633 H   0  0  0  0  0  0  0  0  0  0  0  0
    0.0073    2.3847    1.2748 H   0  0  0  0  0  0  0  0  0  0  0  0
   -0.1843    4.7497    2.0023 H   0  0  0  0  0  0  0  0  0  0  0  0
   -4.4655    4.3383    2.2772 H   0  0  0  0  0  0  0  0  0  0  0  0
   -2.4174    5.7332    2.5037 H   0  0  0  0  0  0  0  0  0  0  0  0
   -2.4435   -1.4857    2.4811 C   0  0  0  0  0  0  0  0  0  0  0  0
   -4.1593   -3.6265    3.0623 C   0  0  0  0  0  0  0  0  0  0  0  0
   -2.8534   -1.7230    3.8010 C   0  0  0  0  0  0  0  0  0  0  0  0
   -2.8890   -2.3326    1.4549 C   0  0  0  0  0  0  0  0  0  0  0  0
   -3.7449   -3.3975    1.7461 C   0  0  0  0  0  0  0  0  0  0  0  0
   -3.7098   -2.7902    4.0882 C   0  0  0  0  0  0  0  0  0  0  0  0
   -2.5027   -1.0819    4.6089 H   0  0  0  0  0  0  0  0  0  0  0  0
   -2.5556   -2.1680    0.4286 H   0  0  0  0  0  0  0  0  0  0  0  0
   -4.0877   -4.0518    0.9454 H   0  0  0  0  0  0  0  0  0  0  0  0
   -4.0247   -2.9702    5.1151 H   0  0  0  0  0  0  0  0  0  0  0  0
   -4.8273   -4.4561    3.2871 H   0  0  0  0  0  0  0  0  0  0  0  0
  1  2  1  0  0  0  0
  1  3  2  0  0  0  0
  3  4  1  0  0  0  0
  2  5  1  0  0  0  0
  5  6  1  0  0  0  0
  5  7  1  0  0  0  0
  7  8  1  0  0  0  0
  7  9  1  0  0  0  0
  7 10  1  0  0  0  0
  5 11  1  0  0  0  0
 11 12  1  0  0  0  0
 11 13  1  0  0  0  0
 11 14  1  0  0  0  0
  2 15  1  0  0  0  0
 15 24  1  0  0  0  0
 15 16  2  0  0  0  0
 16 17  1  0  0  0  0
 16 18  1  0  0  0  0
 18 19  1  0  0  0  0
 18 20  2  0  0  0  0
 20 21  1  0  0  0  0
 20 22  1  0  0  0  0
 22 24  2  0  0  0  0
 22 23  1  0  0  0  0
  3 24  1  0  0  0  0
  1 25  1  0  0  0  0
  1 26  1  0  0  0  0
 27 28  1  0  0  0  0
 27 31  1  0  0  0  0
 28 29  1  0  0  0  0
 30 31  1  0  0  0  0
 32 35  2  0  0  0  0
 35 36  1  0  0  0  0
 33 36  2  0  0  0  0
 33 37  1  0  0  0  0
 34 37  2  0  0  0  0
 32 34  1  0  0  0  0
 36 38  1  0  0  0  0
 37 39  1  0  0  0  0
 28 32  1  0  0  0  0
 29 30  1  0  0  0  0
 29 40  1  0  0  0  0
 30 41  1  0  0  0  0
 42 43  1  0  0  0  0
 42 44  1  0  0  0  0
 42 45  1  0  0  0  0
 35 42  1  0  0  0  0
 46 47  1  0  0  0  0
 46 48  1  0  0  0  0
 46 49  1  0  0  0  0
 34 46  1  0  0  0  0
 50 51  1  0  0  0  0
 50 52  1  0  0  0  0
 50 53  1  0  0  0  0
 33 50  1  0  0  0  0
 54 65  1  0  0  0  0
 54 58  1  0  0  0  0
 54 59  1  0  0  0  0
 55 60  1  0  0  0  0
 55 66  1  0  0  0  0
 55 57  1  0  0  0  0
 55 59  1  0  0  0  0
 56 61  1  0  0  0  0
 56 67  1  0  0  0  0
 56 58  1  0  0  0  0
 56 57  1  0  0  0  0
 57 62  1  0  0  0  0
 57 68  1  0  0  0  0
 58 63  1  0  0  0  0
 58 69  1  0  0  0  0
 59 64  1  0  0  0  0
 59 70  1  0  0  0  0
 31 54  1  0  0  0  0
 71 74  2  0  0  0  0
 74 75  1  0  0  0  0
 72 75  2  0  0  0  0
 72 76  1  0  0  0  0
 73 76  2  0  0  0  0
 71 73  1  0  0  0  0
 75 79  1  0  0  0  0
 76 80  1  0  0  0  0
 72 81  1  0  0  0  0
 73 77  1  0  0  0  0
 74 78  1  0  0  0  0
 30 71  1  0  0  0  0
 82 85  2  0  0  0  0
 85 86  1  0  0  0  0
 83 86  2  0  0  0  0
 83 87  1  0  0  0  0
 84 87  2  0  0  0  0
 82 84  1  0  0  0  0
 86 90  1  0  0  0  0
 87 91  1  0  0  0  0
 83 92  1  0  0  0  0
 84 88  1  0  0  0  0
 85 89  1  0  0  0  0
 29 82  1  0  0  0  0
  1 27  1  0  0  0  0
M  END
> <FrozenCore-PM6_ENERGY>
116.100

> <RMSD_CONF_CG-CS>
0.394582

> <RMSD_CONF_GO-CS>
0.000000

> <UID>


> <DESCRIPTOR_DEFINITION_1>
desc1=( echo "1 * ( e( $hartree_to_kcalmol * ( ( $freeEnergyZ - $freeEnergyD ) - ( $freeEnergyX + 2*$G_Ethene - $freeEnergyD - 2*$G_Propene ) - $DDG_reference_HGII ) / $kT ) ) " | bc -l )

> <DESCRIPTOR_DEFINITION_2>
desc1=( echo "1 * ( e( $hartree_to_kcalmol * ( ( $freeEnergyZ - $freeEnergyD ) - ( $freeEnergyX + 2*$G_Ethene - $freeEnergyD - 2*$G_Propene ) - $DDG_reference_HGII ) / $kT ) ) " | bc -l )

> <DESCRIPTOR_DEFINITION_3>
desc1=( echo "1 * ( e( $hartree_to_kcalmol * ( ( $freeEnergyZ - $freeEnergyD ) - ( $freeEnergyX + 2*$G_Ethene - $freeEnergyD - 2*$G_Propene ) - $DDG_reference_HGII ) / $kT ) ) " | bc -l )

> <WEIGHT_DEFINITION_1>
w1=$( echo "1 / ( 1 + e( $hartree_to_kcalmol * ( ( ( $freeEnergyX + 2*$G_Ethene - $freeEnergyD - 2*$G_Propene ) ) - ( $DG_referenceProductionBarrier + $magnitude4 ) ) / $kT ) )" | bc -l )

> <WEIGHT_DEFINITION_2>
w1=$( echo "1 / ( 1 + e( $hartree_to_kcalmol * ( ( ( $freeEnergyX + 2*$G_Ethene - $freeEnergyD - 2*$G_Propene ) ) - ( $DG_referenceProductionBarrier + $magnitude4 ) ) / $kT ) )" | bc -l )

> <WEIGHT_DEFINITION_3>
w1=$( echo "1 / ( 1 + e( $hartree_to_kcalmol * ( ( ( $freeEnergyX + 2*$G_Ethene - $freeEnergyD - 2*$G_Propene ) ) - ( $DG_referenceProductionBarrier + $magnitude4 ) ) / $kT ) )" | bc -l )

> <WEIGHT_DEFINITION_4>
w1=$( echo "1 / ( 1 + e( $hartree_to_kcalmol * ( ( ( $freeEnergyX + 2*$G_Ethene - $freeEnergyD - 2*$G_Propene ) ) - ( $DG_referenceProductionBarrier + $magnitude4 ) ) / $kT ) )" | bc -l )

> <CALCULATION_OF_OVERALL_FITNESS>
fitness=$( echo "( $desc1 + $desc2 + $desc3 ) * ( $w1 * $w2 * $w3 * $w4 )" | bc -l )

> <freeEnergyA>
-2749.53184942

> <freeEnergyF>
-2749.51394983

> <freeEnergyE>
-2749.53184942

> <freeEnergyC>
-2404.2718264

> <freeEnergyL>
-1271.66022441

> <freeEnergyX>
-2482.8057651

> <freeEnergyZ>
-2404.25746467

> <freeEnergyD>
-2404.29784248

> <G_Propene>
-117.738020895

> <G_Ethene>
-78.4716324751

> <G_HoveydaProd>
-502.204109499

> <G_SIMes>
-924.27249048

> <G_HG_RuCl2_SIMes>
-2402.13728523

> <DG_referenceProductionBarrier>
0.01468968

> <DG_referencePrecursorStabilityHII>
-0.0052201621

> <DG_referencePrecursorStabilityHI>
0.0117775312

> <DDG_referencePrecursorStability>
.0169976933

> <DG_referenceSynt>
0.0226072217

> <hartree_to_kcalmol>
627.49467516

> <boltzmann_constant>
0.0000000000000000000000138066

> <avogadro_number>
602214000000000000000000

> <jmol_to_kcalmol>
0.00023901

> <temp>
313.15

> <kT>
.6223089948281258706000000000

> <magnitude1>
1.43290809

> <magnitude2>
2.86581618

> <magnitude3>
4.29872427

> <magnitude4>
5.73163236

> <DFT_IDENTIFIER>
1723680995135

> <DFT_MACHINE>
158.39.114.73

> <XTB_IDENTIFIER>
NREC

> <XTB_MACHINE>
NREC

> <DESCRIPTOR_1>
.00115506684807203718

> <DESCRIPTOR_2>
9.740970189865959432

> <DESCRIPTOR_3>
0.0000000001

> <WEIGHT_1>
.99864952867627668441

> <WEIGHT_2>
.99999969611446937902

> <WEIGHT_3>
.99999999999998714892

> <WEIGHT_4>
.99999854951758014958

> <FITNESS>
9.72895172783569991301

$$$$
