
  CDK     08142421063D

 78 84  0  0  0  0  0  0  0  0999 V2000
   -1.5681   -1.4252   -3.8156 H   0  0  0  0  0  0  0  0  0  0  0  0
   -2.7821   -1.6259   -3.8259 C   0  0  0  0  0  0  0  0  0  0  0  0
   -2.7289   -1.8216   -4.9190 H   0  0  0  0  0  0  0  0  0  0  0  0
   -2.8930   -2.7040   -2.7983 C   0  0  0  0  0  0  0  0  0  0  0  0
   -3.8447   -2.7849   -2.2476 H   0  0  0  0  0  0  0  0  0  0  0  0
   -2.4191   -3.6670   -3.0592 H   0  0  0  0  0  0  0  0  0  0  0  0
   -1.6442   -1.2262   -2.0547 Ru  0  0  0  0  0  0  0  0  0  0  0  0
   -3.1907   -0.3310   -3.2640 C   0  0  0  0  0  0  0  0  0  0  0  0
   -4.1158   -0.2732   -2.6770 H   0  0  0  0  0  0  0  0  0  0  0  0
   -2.9152    0.5799   -3.8224 H   0  0  0  0  0  0  0  0  0  0  0  0
   -3.3614   -0.7660   -0.3687 Cl  0  0  0  0  0  0  0  0  0  0  0  0
    0.3848   -2.2430   -2.9023 Cl  0  0  0  0  0  0  0  0  0  0  0  0
   -0.7754   -1.4087   -0.2024 C   0  0  0  0  0  0  0  0  0  0  0  0
   -0.3740   -0.3807    0.6009 N   0  0  0  0  0  0  0  0  0  0  0  0
    0.5472   -0.8687    1.6606 C   0  0  0  0  0  0  0  0  0  0  0  0
    0.2280   -2.3912    1.6776 C   0  0  0  0  0  0  0  0  0  0  0  0
   -0.4105   -2.5789    0.3585 N   0  0  0  0  0  0  0  0  0  0  0  0
   -0.6646    1.0167    0.4739 C   0  0  0  0  0  0  0  0  0  0  0  0
   -1.1161    3.8114    0.3097 C   0  0  0  0  0  0  0  0  0  0  0  0
   -1.2973    1.6909    1.5482 C   0  0  0  0  0  0  0  0  0  0  0  0
   -0.3116    1.7207   -0.7010 C   0  0  0  0  0  0  0  0  0  0  0  0
   -0.5456    3.1043   -0.7602 C   0  0  0  0  0  0  0  0  0  0  0  0
   -1.4946    3.0789    1.4455 C   0  0  0  0  0  0  0  0  0  0  0  0
   -0.2665    3.6432   -1.6792 H   0  0  0  0  0  0  0  0  0  0  0  0
   -1.9911    3.5979    2.2805 H   0  0  0  0  0  0  0  0  0  0  0  0
    0.2831   -0.4198    2.6338 H   0  0  0  0  0  0  0  0  0  0  0  0
    1.1778   -2.9568    1.7171 H   0  0  0  0  0  0  0  0  0  0  0  0
    0.2345    1.0073   -1.8946 C   0  0  0  0  0  0  0  0  0  0  0  0
    0.6414    1.7121   -2.6441 H   0  0  0  0  0  0  0  0  0  0  0  0
   -0.5963    0.4721   -2.4604 H   0  0  0  0  0  0  0  0  0  0  0  0
    1.0026    0.2529   -1.6549 H   0  0  0  0  0  0  0  0  0  0  0  0
   -1.8252    0.9661    2.7576 C   0  0  0  0  0  0  0  0  0  0  0  0
   -2.2547   -0.0117    2.4751 H   0  0  0  0  0  0  0  0  0  0  0  0
   -2.6180    1.5641    3.2453 H   0  0  0  0  0  0  0  0  0  0  0  0
   -1.0454    0.7786    3.5272 H   0  0  0  0  0  0  0  0  0  0  0  0
   -1.3100    5.3049    0.2428 C   0  0  0  0  0  0  0  0  0  0  0  0
   -0.4021    5.8407    0.5948 H   0  0  0  0  0  0  0  0  0  0  0  0
   -2.1527    5.6348    0.8814 H   0  0  0  0  0  0  0  0  0  0  0  0
   -1.5072    5.6444   -0.7930 H   0  0  0  0  0  0  0  0  0  0  0  0
   -0.6703   -3.9098   -0.2194 C   0  0  0  0  0  0  0  0  0  0  0  0
    0.2613   -6.1839   -0.7332 C   0  0  0  0  0  0  0  0  0  0  0  0
   -2.2392   -5.8470   -0.5212 C   0  0  0  0  0  0  0  0  0  0  0  0
   -1.0721   -6.8232   -0.3233 C   0  0  0  0  0  0  0  0  0  0  0  0
   -2.0011   -4.5317    0.2333 C   0  0  0  0  0  0  0  0  0  0  0  0
    0.5055   -4.8651    0.0146 C   0  0  0  0  0  0  0  0  0  0  0  0
    0.2524   -5.9778   -1.8266 H   0  0  0  0  0  0  0  0  0  0  0  0
   -2.3558   -5.6318   -1.6072 H   0  0  0  0  0  0  0  0  0  0  0  0
   -1.0217   -7.1180    0.7496 H   0  0  0  0  0  0  0  0  0  0  0  0
   -1.9772   -4.7321    1.3245 H   0  0  0  0  0  0  0  0  0  0  0  0
    0.6149   -5.0778    1.1019 H   0  0  0  0  0  0  0  0  0  0  0  0
   -0.7317   -3.7267   -1.3084 H   0  0  0  0  0  0  0  0  0  0  0  0
    1.1029   -6.8833   -0.5498 H   0  0  0  0  0  0  0  0  0  0  0  0
   -3.1930   -6.3060   -0.1887 H   0  0  0  0  0  0  0  0  0  0  0  0
   -1.2437   -7.7566   -0.8988 H   0  0  0  0  0  0  0  0  0  0  0  0
   -2.8198   -3.8078    0.0465 H   0  0  0  0  0  0  0  0  0  0  0  0
    1.4462   -4.3898   -0.3327 H   0  0  0  0  0  0  0  0  0  0  0  0
   -0.6538   -2.8039    2.8407 C   0  0  0  0  0  0  0  0  0  0  0  0
   -2.2349   -3.4687    5.0759 C   0  0  0  0  0  0  0  0  0  0  0  0
   -0.0697   -3.3900    3.9773 C   0  0  0  0  0  0  0  0  0  0  0  0
   -2.0406   -2.5583    2.8263 C   0  0  0  0  0  0  0  0  0  0  0  0
   -2.8240   -2.8891    3.9403 C   0  0  0  0  0  0  0  0  0  0  0  0
   -0.8551   -3.7213    5.0920 C   0  0  0  0  0  0  0  0  0  0  0  0
    1.0130   -3.5915    3.9866 H   0  0  0  0  0  0  0  0  0  0  0  0
   -2.5107   -2.1258    1.9290 H   0  0  0  0  0  0  0  0  0  0  0  0
   -3.9063   -2.6959    3.9176 H   0  0  0  0  0  0  0  0  0  0  0  0
   -0.3878   -4.1848    5.9730 H   0  0  0  0  0  0  0  0  0  0  0  0
   -2.8536   -3.7303    5.9466 H   0  0  0  0  0  0  0  0  0  0  0  0
    1.9886   -0.5390    1.3293 C   0  0  0  0  0  0  0  0  0  0  0  0
    4.6773    0.0699    0.7451 C   0  0  0  0  0  0  0  0  0  0  0  0
    2.7527    0.2356    2.2176 C   0  0  0  0  0  0  0  0  0  0  0  0
    2.5804   -1.0064    0.1373 C   0  0  0  0  0  0  0  0  0  0  0  0
    3.9175   -0.7026   -0.1495 C   0  0  0  0  0  0  0  0  0  0  0  0
    4.0924    0.5398    1.9295 C   0  0  0  0  0  0  0  0  0  0  0  0
    2.2892    0.6083    3.1441 H   0  0  0  0  0  0  0  0  0  0  0  0
    1.9923   -1.6005   -0.5803 H   0  0  0  0  0  0  0  0  0  0  0  0
    4.3674   -1.0689   -1.0837 H   0  0  0  0  0  0  0  0  0  0  0  0
    4.6783    1.1507    2.6314 H   0  0  0  0  0  0  0  0  0  0  0  0
    5.7258    0.3085    0.5151 H   0  0  0  0  0  0  0  0  0  0  0  0
  1  2  1  0  0  0  0
  1  7  1  0  0  0  0
  2  3  1  0  0  0  0
  2  4  1  0  0  0  0
  4  5  1  0  0  0  0
  4  6  1  0  0  0  0
  7  8  1  0  0  0  0
  4  7  1  0  0  0  0
  2  8  1  0  0  0  0
  8  9  1  0  0  0  0
  8 10  1  0  0  0  0
  7 11  1  0  0  0  0
  7 12  1  0  0  0  0
 13 14  1  0  0  0  0
 13 17  1  0  0  0  0
 14 15  1  0  0  0  0
 16 17  1  0  0  0  0
 18 21  2  0  0  0  0
 21 22  1  0  0  0  0
 19 22  2  0  0  0  0
 19 23  1  0  0  0  0
 20 23  2  0  0  0  0
 18 20  1  0  0  0  0
 22 24  1  0  0  0  0
 23 25  1  0  0  0  0
 14 18  1  0  0  0  0
 15 16  1  0  0  0  0
 15 26  1  0  0  0  0
 16 27  1  0  0  0  0
 28 29  1  0  0  0  0
 28 30  1  0  0  0  0
 28 31  1  0  0  0  0
 21 28  1  0  0  0  0
 32 33  1  0  0  0  0
 32 34  1  0  0  0  0
 32 35  1  0  0  0  0
 20 32  1  0  0  0  0
 36 37  1  0  0  0  0
 36 38  1  0  0  0  0
 36 39  1  0  0  0  0
 19 36  1  0  0  0  0
 40 51  1  0  0  0  0
 40 44  1  0  0  0  0
 40 45  1  0  0  0  0
 41 46  1  0  0  0  0
 41 52  1  0  0  0  0
 41 43  1  0  0  0  0
 41 45  1  0  0  0  0
 42 47  1  0  0  0  0
 42 53  1  0  0  0  0
 42 44  1  0  0  0  0
 42 43  1  0  0  0  0
 43 48  1  0  0  0  0
 43 54  1  0  0  0  0
 44 49  1  0  0  0  0
 44 55  1  0  0  0  0
 45 50  1  0  0  0  0
 45 56  1  0  0  0  0
 17 40  1  0  0  0  0
 57 60  2  0  0  0  0
 60 61  1  0  0  0  0
 58 61  2  0  0  0  0
 58 62  1  0  0  0  0
 59 62  2  0  0  0  0
 57 59  1  0  0  0  0
 61 65  1  0  0  0  0
 62 66  1  0  0  0  0
 58 67  1  0  0  0  0
 59 63  1  0  0  0  0
 60 64  1  0  0  0  0
 16 57  1  0  0  0  0
 68 71  2  0  0  0  0
 71 72  1  0  0  0  0
 69 72  2  0  0  0  0
 69 73  1  0  0  0  0
 70 73  2  0  0  0  0
 68 70  1  0  0  0  0
 72 76  1  0  0  0  0
 73 77  1  0  0  0  0
 69 78  1  0  0  0  0
 70 74  1  0  0  0  0
 71 75  1  0  0  0  0
 15 68  1  0  0  0  0
  7 13  1  0  0  0  0
M  END
>  <DFT-ENERGY>
-2404.25746487

$$$$
