
  CDK     08132412263D

 85 88  0  0  0  0  0  0  0  0999 V2000
   -1.2331   -3.5432   -1.7938 C   0  0  0  0  0  0  0  0  0  0  0  0
   -0.2941   -3.6665   -2.3611 H   0  0  0  0  0  0  0  0  0  0  0  0
   -1.9178   -4.3932   -2.0110 H   0  0  0  0  0  0  0  0  0  0  0  0
   -1.7426   -2.6286   -2.1622 H   0  0  0  0  0  0  0  0  0  0  0  0
   -0.9945   -3.4853   -0.3031 C   0  0  0  0  0  0  0  0  0  0  0  0
   -1.9046   -3.4438    0.3244 H   0  0  0  0  0  0  0  0  0  0  0  0
    0.1505   -4.0171    0.3497 C   0  0  0  0  0  0  0  0  0  0  0  0
    0.9973   -4.3138   -0.2935 H   0  0  0  0  0  0  0  0  0  0  0  0
    0.0052   -4.6973    1.6921 C   0  0  0  0  0  0  0  0  0  0  0  0
    0.9721   -4.8303    2.2130 H   0  0  0  0  0  0  0  0  0  0  0  0
   -0.4291   -5.7073    1.5294 H   0  0  0  0  0  0  0  0  0  0  0  0
   -0.6860   -4.1277    2.3442 H   0  0  0  0  0  0  0  0  0  0  0  0
    1.3333   -2.2477    1.2748 C   0  0  0  0  0  0  0  0  0  0  0  0
    1.1225   -2.3359    2.3619 H   0  0  0  0  0  0  0  0  0  0  0  0
    2.3550   -2.5103    0.9235 H   0  0  0  0  0  0  0  0  0  0  0  0
    0.0702   -1.6351    0.1024 Ru  0  0  0  0  0  0  0  0  0  0  0  0
   -1.4900   -1.4152    1.9286 Cl  0  0  0  0  0  0  0  0  0  0  0  0
    1.6235   -1.9525   -1.6937 Cl  0  0  0  0  0  0  0  0  0  0  0  0
    0.0149    0.3565    0.0492 C   0  0  0  0  0  0  0  0  0  0  0  0
   -0.8810    1.0330   -0.7229 N   0  0  0  0  0  0  0  0  0  0  0  0
   -1.0871    2.4060   -0.2228 C   0  0  0  0  0  0  0  0  0  0  0  0
    0.1962    2.6318    0.5805 C   0  0  0  0  0  0  0  0  0  0  0  0
    0.6219    1.2457    0.8798 N   0  0  0  0  0  0  0  0  0  0  0  0
   -1.2170    3.1193   -1.0572 H   0  0  0  0  0  0  0  0  0  0  0  0
   -1.9903    2.4450    0.4234 H   0  0  0  0  0  0  0  0  0  0  0  0
    0.0259    3.1989    1.5127 H   0  0  0  0  0  0  0  0  0  0  0  0
    0.9795    3.1489   -0.0148 H   0  0  0  0  0  0  0  0  0  0  0  0
    1.6863    0.9532    1.7986 C   0  0  0  0  0  0  0  0  0  0  0  0
    3.7503    0.4251    3.6083 C   0  0  0  0  0  0  0  0  0  0  0  0
    1.4038    0.9617    3.1885 C   0  0  0  0  0  0  0  0  0  0  0  0
    2.9928    0.6967    1.2984 C   0  0  0  0  0  0  0  0  0  0  0  0
    4.0085    0.4248    2.2327 C   0  0  0  0  0  0  0  0  0  0  0  0
    2.4622    0.6971    4.0778 C   0  0  0  0  0  0  0  0  0  0  0  0
    5.0244    0.2146    1.8721 H   0  0  0  0  0  0  0  0  0  0  0  0
    2.2657    0.6968    5.1593 H   0  0  0  0  0  0  0  0  0  0  0  0
   -1.6098    0.4330   -1.8073 C   0  0  0  0  0  0  0  0  0  0  0  0
   -2.9949   -0.7145   -3.9427 C   0  0  0  0  0  0  0  0  0  0  0  0
   -2.9492    0.0104   -1.6100 C   0  0  0  0  0  0  0  0  0  0  0  0
   -0.9546    0.3086   -3.0657 C   0  0  0  0  0  0  0  0  0  0  0  0
   -1.6729   -0.2853   -4.1175 C   0  0  0  0  0  0  0  0  0  0  0  0
   -3.6263   -0.5607   -2.7054 C   0  0  0  0  0  0  0  0  0  0  0  0
   -1.1885   -0.4118   -5.0943 H   0  0  0  0  0  0  0  0  0  0  0  0
   -4.6648   -0.8965   -2.5776 H   0  0  0  0  0  0  0  0  0  0  0  0
    0.4548    0.8436   -3.2896 C   0  0  0  0  0  0  0  0  0  0  0  0
    1.0271    0.6461   -2.3621 H   0  0  0  0  0  0  0  0  0  0  0  0
   -3.6739    0.2051   -0.2868 C   0  0  0  0  0  0  0  0  0  0  0  0
   -2.9061    0.3579    0.4977 H   0  0  0  0  0  0  0  0  0  0  0  0
    3.3191    0.7645   -0.1875 C   0  0  0  0  0  0  0  0  0  0  0  0
    2.4054    0.4819   -0.7463 H   0  0  0  0  0  0  0  0  0  0  0  0
    0.0198    1.2786    3.7376 C   0  0  0  0  0  0  0  0  0  0  0  0
   -0.6956    1.1973    2.8950 H   0  0  0  0  0  0  0  0  0  0  0  0
   -4.4842   -1.0296    0.1331 C   0  0  0  0  0  0  0  0  0  0  0  0
   -4.8920   -0.8821    1.1527 H   0  0  0  0  0  0  0  0  0  0  0  0
   -3.8448   -1.9317    0.1613 H   0  0  0  0  0  0  0  0  0  0  0  0
   -5.3417   -1.2169   -0.5461 H   0  0  0  0  0  0  0  0  0  0  0  0
   -4.5825    1.4476   -0.3610 C   0  0  0  0  0  0  0  0  0  0  0  0
   -5.0688    1.6350    0.6183 H   0  0  0  0  0  0  0  0  0  0  0  0
   -5.3834    1.3048   -1.1165 H   0  0  0  0  0  0  0  0  0  0  0  0
   -4.0208    2.3593   -0.6479 H   0  0  0  0  0  0  0  0  0  0  0  0
    1.2032    0.1447   -4.4301 C   0  0  0  0  0  0  0  0  0  0  0  0
    0.7735    0.3910   -5.4238 H   0  0  0  0  0  0  0  0  0  0  0  0
    1.2001   -0.9526   -4.2920 H   0  0  0  0  0  0  0  0  0  0  0  0
    2.2595    0.4804   -4.4400 H   0  0  0  0  0  0  0  0  0  0  0  0
    0.4254    2.3647   -3.5340 C   0  0  0  0  0  0  0  0  0  0  0  0
   -0.1405    2.6044   -4.4585 H   0  0  0  0  0  0  0  0  0  0  0  0
    1.4567    2.7561   -3.6536 H   0  0  0  0  0  0  0  0  0  0  0  0
   -0.0494    2.9179   -2.7010 H   0  0  0  0  0  0  0  0  0  0  0  0
    3.7190    2.1993   -0.5842 C   0  0  0  0  0  0  0  0  0  0  0  0
    3.8825    2.2681   -1.6795 H   0  0  0  0  0  0  0  0  0  0  0  0
    4.6610    2.4976   -0.0779 H   0  0  0  0  0  0  0  0  0  0  0  0
    2.9480    2.9446   -0.3063 H   0  0  0  0  0  0  0  0  0  0  0  0
    4.4129   -0.2205   -0.6189 C   0  0  0  0  0  0  0  0  0  0  0  0
    4.4920   -0.2254   -1.7236 H   0  0  0  0  0  0  0  0  0  0  0  0
    4.1708   -1.2538   -0.3070 H   0  0  0  0  0  0  0  0  0  0  0  0
    5.4084    0.0572   -0.2137 H   0  0  0  0  0  0  0  0  0  0  0  0
   -0.0176    2.7111    4.3048 C   0  0  0  0  0  0  0  0  0  0  0  0
   -1.0415    2.9728    4.6419 H   0  0  0  0  0  0  0  0  0  0  0  0
    0.3057    3.4690    3.5621 H   0  0  0  0  0  0  0  0  0  0  0  0
    0.6607    2.8058    5.1786 H   0  0  0  0  0  0  0  0  0  0  0  0
   -0.4332    0.2710    4.8051 C   0  0  0  0  0  0  0  0  0  0  0  0
   -1.4767    0.4888    5.1100 H   0  0  0  0  0  0  0  0  0  0  0  0
    0.1958    0.3248    5.7179 H   0  0  0  0  0  0  0  0  0  0  0  0
   -0.4084   -0.7600    4.4055 H   0  0  0  0  0  0  0  0  0  0  0  0
    4.5622    0.2127    4.3195 H   0  0  0  0  0  0  0  0  0  0  0  0
   -3.5367   -1.1736   -4.7827 H   0  0  0  0  0  0  0  0  0  0  0  0
  1  2  1  0  0  0  0
  1  5  1  0  0  0  0
  3  1  1  0  0  0  0
  4  1  1  0  0  0  0
  5  6  1  0  0  0  0
  5 16  1  0  0  0  0
  5  7  1  0  0  0  0
  7  9  1  0  0  0  0
  7  8  1  0  0  0  0
  9 10  1  0  0  0  0
 11  9  1  0  0  0  0
 12  9  1  0  0  0  0
 13 14  1  0  0  0  0
 13 15  1  0  0  0  0
 13  7  1  0  0  0  0
 16 13  1  0  0  0  0
 16 17  1  0  0  0  0
 16 18  1  0  0  0  0
 19 20  1  0  0  0  0
 19 23  1  0  0  0  0
 20 21  1  0  0  0  0
 21 24  1  0  0  0  0
 21 25  1  0  0  0  0
 21 22  1  0  0  0  0
 22 26  1  0  0  0  0
 22 27  1  0  0  0  0
 22 23  1  0  0  0  0
 28 31  2  0  0  0  0
 31 32  1  0  0  0  0
 29 32  2  0  0  0  0
 29 33  1  0  0  0  0
 30 33  2  0  0  0  0
 28 30  1  0  0  0  0
 32 34  1  0  0  0  0
 33 35  1  0  0  0  0
 23 28  1  0  0  0  0
 36 39  2  0  0  0  0
 39 40  1  0  0  0  0
 37 40  2  0  0  0  0
 37 41  1  0  0  0  0
 38 41  2  0  0  0  0
 36 38  1  0  0  0  0
 40 42  1  0  0  0  0
 41 43  1  0  0  0  0
 20 36  1  0  0  0  0
 44 45  1  0  0  0  0
 39 44  1  0  0  0  0
 46 47  1  0  0  0  0
 38 46  1  0  0  0  0
 48 49  1  0  0  0  0
 31 48  1  0  0  0  0
 50 51  1  0  0  0  0
 30 50  1  0  0  0  0
 52 53  1  0  0  0  0
 52 54  1  0  0  0  0
 52 55  1  0  0  0  0
 46 52  1  0  0  0  0
 56 57  1  0  0  0  0
 56 58  1  0  0  0  0
 56 59  1  0  0  0  0
 46 56  1  0  0  0  0
 60 61  1  0  0  0  0
 60 62  1  0  0  0  0
 60 63  1  0  0  0  0
 44 60  1  0  0  0  0
 64 65  1  0  0  0  0
 64 66  1  0  0  0  0
 64 67  1  0  0  0  0
 44 64  1  0  0  0  0
 68 69  1  0  0  0  0
 68 70  1  0  0  0  0
 68 71  1  0  0  0  0
 48 68  1  0  0  0  0
 72 73  1  0  0  0  0
 72 74  1  0  0  0  0
 72 75  1  0  0  0  0
 48 72  1  0  0  0  0
 76 77  1  0  0  0  0
 76 78  1  0  0  0  0
 76 79  1  0  0  0  0
 50 76  1  0  0  0  0
 80 81  1  0  0  0  0
 80 82  1  0  0  0  0
 80 83  1  0  0  0  0
 50 80  1  0  0  0  0
 29 84  1  0  0  0  0
 37 85  1  0  0  0  0
 16 19  1  0  0  0  0
M  END
>  <DFT-ENERGY>
-2370.97341161

$$$$
