DIPP-2_A2
  CDK     08122419363D

 93 97  0  0  0  0  0  0  0  0999 V2000
    0.9824   -0.0522   -0.8292 Ru  0  0  0  0  0  0  0  0  0  0  0  0
    2.7602   -0.0522   -2.2184 O   0  0  0  0  0  0  0  0  0  0  0  0
    2.1926    0.8811    0.1749 C   0  0  0  0  0  0  0  0  0  0  0  0
    1.9598    1.1740    1.1976 H   0  0  0  0  0  0  0  0  0  0  0  0
    2.9957   -0.8274   -3.4442 C   0  0  0  0  0  0  0  0  0  0  0  0
    3.3974   -0.1257   -4.2051 H   0  0  0  0  0  0  0  0  0  0  0  0
    1.5739   -1.2771   -3.7508 C   0  0  0  0  0  0  0  0  0  0  0  0
    1.5018   -1.7882   -4.7140 H   0  0  0  0  0  0  0  0  0  0  0  0
    1.1946   -1.9691   -2.9695 H   0  0  0  0  0  0  0  0  0  0  0  0
    0.8821   -0.4102   -3.7639 H   0  0  0  0  0  0  0  0  0  0  0  0
    3.9403   -1.9685   -3.1138 C   0  0  0  0  0  0  0  0  0  0  0  0
    3.9424   -2.7356   -3.8948 H   0  0  0  0  0  0  0  0  0  0  0  0
    4.9713   -1.6347   -2.9575 H   0  0  0  0  0  0  0  0  0  0  0  0
    3.6201   -2.4613   -2.1734 H   0  0  0  0  0  0  0  0  0  0  0  0
    3.7524    0.7462   -1.7134 C   0  0  0  0  0  0  0  0  0  0  0  0
    4.9215    1.0950   -2.3664 C   0  0  0  0  0  0  0  0  0  0  0  0
    5.1408    0.7443   -3.3722 H   0  0  0  0  0  0  0  0  0  0  0  0
    5.8227    1.9261   -1.7089 C   0  0  0  0  0  0  0  0  0  0  0  0
    6.7453    2.2135   -2.2176 H   0  0  0  0  0  0  0  0  0  0  0  0
    5.5727    2.3977   -0.4236 C   0  0  0  0  0  0  0  0  0  0  0  0
    6.2976    3.0420    0.0710 H   0  0  0  0  0  0  0  0  0  0  0  0
    4.4030    2.0374    0.2180 C   0  0  0  0  0  0  0  0  0  0  0  0
    4.2098    2.3920    1.2293 H   0  0  0  0  0  0  0  0  0  0  0  0
    3.4675    1.2219   -0.4214 C   0  0  0  0  0  0  0  0  0  0  0  0
    1.5966   -2.2972   -0.2554 Cl  0  0  0  0  0  0  0  0  0  0  0  0
    0.1607    1.6507   -2.1860 Cl  0  0  0  0  0  0  0  0  0  0  0  0
   -0.6382   -0.0222    0.3054 C   0  0  0  0  0  0  0  0  0  0  0  0
   -0.9574    0.6627    1.4780 N   0  0  0  0  0  0  0  0  0  0  0  0
   -2.3925    0.4948    1.9127 C   0  0  0  0  0  0  0  0  0  0  0  0
   -2.9651   -0.4755    0.8705 C   0  0  0  0  0  0  0  0  0  0  0  0
   -1.8047   -0.7062   -0.0605 N   0  0  0  0  0  0  0  0  0  0  0  0
   -2.4386    0.0943    2.9452 H   0  0  0  0  0  0  0  0  0  0  0  0
   -2.9032    1.4797    1.9076 H   0  0  0  0  0  0  0  0  0  0  0  0
   -3.8270   -0.0489    0.3042 H   0  0  0  0  0  0  0  0  0  0  0  0
   -3.2928   -1.4473    1.3131 H   0  0  0  0  0  0  0  0  0  0  0  0
   -2.0597   -1.5854   -1.1828 C   0  0  0  0  0  0  0  0  0  0  0  0
   -2.6931   -3.2883   -3.3061 C   0  0  0  0  0  0  0  0  0  0  0  0
   -2.6198   -1.0455   -2.3672 C   0  0  0  0  0  0  0  0  0  0  0  0
   -1.8789   -2.9831   -1.0319 C   0  0  0  0  0  0  0  0  0  0  0  0
   -2.1929   -3.8158   -2.1160 C   0  0  0  0  0  0  0  0  0  0  0  0
   -2.9164   -1.9169   -3.4248 C   0  0  0  0  0  0  0  0  0  0  0  0
   -2.0517   -4.8930   -2.0245 H   0  0  0  0  0  0  0  0  0  0  0  0
   -3.3373   -1.5170   -4.3474 H   0  0  0  0  0  0  0  0  0  0  0  0
   -0.1435    1.4964    2.3335 C   0  0  0  0  0  0  0  0  0  0  0  0
    1.2732    3.1370    4.0927 C   0  0  0  0  0  0  0  0  0  0  0  0
   -0.0232    2.8765    2.0504 C   0  0  0  0  0  0  0  0  0  0  0  0
    0.4539    0.9279    3.4860 C   0  0  0  0  0  0  0  0  0  0  0  0
    1.1668    1.7689    4.3501 C   0  0  0  0  0  0  0  0  0  0  0  0
    0.6870    3.6837    2.9522 C   0  0  0  0  0  0  0  0  0  0  0  0
    1.6477    1.3496    5.2339 H   0  0  0  0  0  0  0  0  0  0  0  0
    0.7835    4.7506    2.7513 H   0  0  0  0  0  0  0  0  0  0  0  0
    0.3821   -0.5641    3.7656 C   0  0  0  0  0  0  0  0  0  0  0  0
   -0.5091   -1.0013    3.2437 H   0  0  0  0  0  0  0  0  0  0  0  0
   -0.6111    3.4985    0.7953 C   0  0  0  0  0  0  0  0  0  0  0  0
   -1.0981    2.7028    0.1665 H   0  0  0  0  0  0  0  0  0  0  0  0
   -1.4229   -3.5971    0.2822 C   0  0  0  0  0  0  0  0  0  0  0  0
   -0.7945   -2.8446    0.8337 H   0  0  0  0  0  0  0  0  0  0  0  0
   -2.9732    0.4279   -2.4887 C   0  0  0  0  0  0  0  0  0  0  0  0
   -2.3471    1.0182   -1.7642 H   0  0  0  0  0  0  0  0  0  0  0  0
    0.5053    4.1060   -0.0623 C   0  0  0  0  0  0  0  0  0  0  0  0
    0.1120    4.4401   -1.0315 H   0  0  0  0  0  0  0  0  0  0  0  0
    1.2704    3.3466   -0.2976 H   0  0  0  0  0  0  0  0  0  0  0  0
    0.9990    4.9541    0.4162 H   0  0  0  0  0  0  0  0  0  0  0  0
   -1.6783    4.5373    1.1623 C   0  0  0  0  0  0  0  0  0  0  0  0
   -2.1600    4.9314    0.2597 H   0  0  0  0  0  0  0  0  0  0  0  0
   -1.2513    5.3912    1.6993 H   0  0  0  0  0  0  0  0  0  0  0  0
   -2.4580    4.1049    1.7966 H   0  0  0  0  0  0  0  0  0  0  0  0
    1.6342   -1.2318    3.1865 C   0  0  0  0  0  0  0  0  0  0  0  0
    2.5557   -0.8487    3.6342 H   0  0  0  0  0  0  0  0  0  0  0  0
    1.7030   -1.0697    2.0944 H   0  0  0  0  0  0  0  0  0  0  0  0
    1.6176   -2.3172    3.3349 H   0  0  0  0  0  0  0  0  0  0  0  0
    0.2213   -0.8687    5.2603 C   0  0  0  0  0  0  0  0  0  0  0  0
    1.1198   -0.6098    5.8321 H   0  0  0  0  0  0  0  0  0  0  0  0
    0.0398   -1.9378    5.4203 H   0  0  0  0  0  0  0  0  0  0  0  0
   -0.6187   -0.3172    5.6950 H   0  0  0  0  0  0  0  0  0  0  0  0
   -2.6601   -3.9310    1.1320 C   0  0  0  0  0  0  0  0  0  0  0  0
   -2.3680   -4.3959    2.0795 H   0  0  0  0  0  0  0  0  0  0  0  0
   -3.3272   -4.6294    0.6150 H   0  0  0  0  0  0  0  0  0  0  0  0
   -3.2402   -3.0257    1.3661 H   0  0  0  0  0  0  0  0  0  0  0  0
   -0.5561   -4.8453    0.0819 C   0  0  0  0  0  0  0  0  0  0  0  0
   -0.0954   -5.1530    1.0274 H   0  0  0  0  0  0  0  0  0  0  0  0
    0.2710   -4.6374   -0.6135 H   0  0  0  0  0  0  0  0  0  0  0  0
   -1.1224   -5.6958   -0.3068 H   0  0  0  0  0  0  0  0  0  0  0  0
   -4.4527    0.6151   -2.1158 C   0  0  0  0  0  0  0  0  0  0  0  0
   -4.7513    1.6641   -2.2173 H   0  0  0  0  0  0  0  0  0  0  0  0
   -4.6385    0.3112   -1.0750 H   0  0  0  0  0  0  0  0  0  0  0  0
   -5.1109    0.0221   -2.7598 H   0  0  0  0  0  0  0  0  0  0  0  0
   -2.6814    0.9855   -3.8857 C   0  0  0  0  0  0  0  0  0  0  0  0
   -2.8255    2.0723   -3.9069 H   0  0  0  0  0  0  0  0  0  0  0  0
   -3.3192    0.5485   -4.6585 H   0  0  0  0  0  0  0  0  0  0  0  0
   -1.6317    0.8072   -4.1609 H   0  0  0  0  0  0  0  0  0  0  0  0
   -2.9245   -3.9509   -4.1392 H   0  0  0  0  0  0  0  0  0  0  0  0
    1.8214    3.7774    4.7828 H   0  0  0  0  0  0  0  0  0  0  0  0
  2  1  1  0  0  0  0
  3  1  2  0  0  0  0
  4  3  1  0  0  0  0
  5  2  1  0  0  0  0
  6  5  1  0  0  0  0
  7  5  1  0  0  0  0
  8  7  1  0  0  0  0
  9  7  1  0  0  0  0
 10  7  1  0  0  0  0
 11  5  1  0  0  0  0
 12 11  1  0  0  0  0
 13 11  1  0  0  0  0
 14 11  1  0  0  0  0
 15  2  1  0  0  0  0
 15 24  1  0  0  0  0
 16 15  2  0  0  0  0
 17 16  1  0  0  0  0
 18 16  1  0  0  0  0
 19 18  1  0  0  0  0
 20 18  2  0  0  0  0
 21 20  1  0  0  0  0
 22 20  1  0  0  0  0
 22 24  2  0  0  0  0
 23 22  1  0  0  0  0
 24  3  1  0  0  0  0
  1 25  1  0  0  0  0
  1 26  1  0  0  0  0
 27 28  1  0  0  0  0
 27 31  1  0  0  0  0
 28 29  1  0  0  0  0
 29 32  1  0  0  0  0
 29 33  1  0  0  0  0
 29 30  1  0  0  0  0
 30 34  1  0  0  0  0
 30 35  1  0  0  0  0
 30 31  1  0  0  0  0
 36 39  2  0  0  0  0
 39 40  1  0  0  0  0
 37 40  2  0  0  0  0
 37 41  1  0  0  0  0
 38 41  2  0  0  0  0
 36 38  1  0  0  0  0
 40 42  1  0  0  0  0
 41 43  1  0  0  0  0
 31 36  1  0  0  0  0
 44 47  2  0  0  0  0
 47 48  1  0  0  0  0
 45 48  2  0  0  0  0
 45 49  1  0  0  0  0
 46 49  2  0  0  0  0
 44 46  1  0  0  0  0
 48 50  1  0  0  0  0
 49 51  1  0  0  0  0
 28 44  1  0  0  0  0
 52 53  1  0  0  0  0
 47 52  1  0  0  0  0
 54 55  1  0  0  0  0
 46 54  1  0  0  0  0
 56 57  1  0  0  0  0
 39 56  1  0  0  0  0
 58 59  1  0  0  0  0
 38 58  1  0  0  0  0
 60 61  1  0  0  0  0
 60 62  1  0  0  0  0
 60 63  1  0  0  0  0
 54 60  1  0  0  0  0
 64 65  1  0  0  0  0
 64 66  1  0  0  0  0
 64 67  1  0  0  0  0
 54 64  1  0  0  0  0
 68 69  1  0  0  0  0
 68 70  1  0  0  0  0
 68 71  1  0  0  0  0
 52 68  1  0  0  0  0
 72 73  1  0  0  0  0
 72 74  1  0  0  0  0
 72 75  1  0  0  0  0
 52 72  1  0  0  0  0
 76 77  1  0  0  0  0
 76 78  1  0  0  0  0
 76 79  1  0  0  0  0
 56 76  1  0  0  0  0
 80 81  1  0  0  0  0
 80 82  1  0  0  0  0
 80 83  1  0  0  0  0
 56 80  1  0  0  0  0
 84 85  1  0  0  0  0
 84 86  1  0  0  0  0
 84 87  1  0  0  0  0
 58 84  1  0  0  0  0
 88 89  1  0  0  0  0
 88 90  1  0  0  0  0
 88 91  1  0  0  0  0
 58 88  1  0  0  0  0
 37 92  1  0  0  0  0
 45 93  1  0  0  0  0
  1 27  1  0  0  0  0
M  END
> <FrozenCore-PM6_ENERGY>
-33.329

> <RMSD_CONF_CG-CS>
0.411395

> <RMSD_CONF_GO-CS>
0.000000

> <UID>


> <DESCRIPTOR_DEFINITION_1>
desc1=( echo "1 * ( e( $hartree_to_kcalmol * ( ( $freeEnergyZ - $freeEnergyD ) - ( $freeEnergyX + 2*$G_Ethene - $freeEnergyD - 2*$G_Propene ) - $DDG_reference_HGII ) / $kT ) ) " | bc -l )

> <DESCRIPTOR_DEFINITION_2>
desc1=( echo "1 * ( e( $hartree_to_kcalmol * ( ( $freeEnergyZ - $freeEnergyD ) - ( $freeEnergyX + 2*$G_Ethene - $freeEnergyD - 2*$G_Propene ) - $DDG_reference_HGII ) / $kT ) ) " | bc -l )

> <DESCRIPTOR_DEFINITION_3>
desc1=( echo "1 * ( e( $hartree_to_kcalmol * ( ( $freeEnergyZ - $freeEnergyD ) - ( $freeEnergyX + 2*$G_Ethene - $freeEnergyD - 2*$G_Propene ) - $DDG_reference_HGII ) / $kT ) ) " | bc -l )

> <WEIGHT_DEFINITION_1>
w1=$( echo "1 / ( 1 + e( $hartree_to_kcalmol * ( ( ( $freeEnergyX + 2*$G_Ethene - $freeEnergyD - 2*$G_Propene ) ) - ( $DG_referenceProductionBarrier + $magnitude4 ) ) / $kT ) )" | bc -l )

> <WEIGHT_DEFINITION_2>
w1=$( echo "1 / ( 1 + e( $hartree_to_kcalmol * ( ( ( $freeEnergyX + 2*$G_Ethene - $freeEnergyD - 2*$G_Propene ) ) - ( $DG_referenceProductionBarrier + $magnitude4 ) ) / $kT ) )" | bc -l )

> <WEIGHT_DEFINITION_3>
w1=$( echo "1 / ( 1 + e( $hartree_to_kcalmol * ( ( ( $freeEnergyX + 2*$G_Ethene - $freeEnergyD - 2*$G_Propene ) ) - ( $DG_referenceProductionBarrier + $magnitude4 ) ) / $kT ) )" | bc -l )

> <WEIGHT_DEFINITION_4>
w1=$( echo "1 / ( 1 + e( $hartree_to_kcalmol * ( ( ( $freeEnergyX + 2*$G_Ethene - $freeEnergyD - 2*$G_Propene ) ) - ( $DG_referenceProductionBarrier + $magnitude4 ) ) / $kT ) )" | bc -l )

> <CALCULATION_OF_OVERALL_FITNESS>
fitness=$( echo "( $desc1 + $desc2 + $desc3 ) * ( $w1 * $w2 * $w3 * $w4 )" | bc -l )

> <freeEnergyA>
-2637.69352284

> <freeEnergyF>
-2637.6731428

> <freeEnergyE>
-2637.69352284

> <freeEnergyC>
-2292.43653646

> <freeEnergyL>
-1159.83143942

> <freeEnergyX>
-2370.97341159

> <freeEnergyZ>
-2292.41906581

> <freeEnergyD>
-2292.4627268

> <G_Propene>
-117.738020895

> <G_Ethene>
-78.4716324751

> <G_HoveydaProd>
-502.204109499

> <G_SIMes>
-924.27249048

> <G_HG_RuCl2_SIMes>
-2402.13728523

> <DG_referenceProductionBarrier>
0.01468968

> <DG_referencePrecursorStabilityHII>
-0.0052201621

> <DG_referencePrecursorStabilityHI>
0.0117775312

> <DDG_referencePrecursorStability>
.0169976933

> <DG_referenceSynt>
0.0226072217

> <hartree_to_kcalmol>
627.49467516

> <boltzmann_constant>
0.0000000000000000000000138066

> <avogadro_number>
602214000000000000000000

> <jmol_to_kcalmol>
0.00023901

> <temp>
313.15

> <kT>
.6223089948281258706000000000

> <magnitude1>
1.43290809

> <magnitude2>
2.86581618

> <magnitude3>
4.29872427

> <magnitude4>
5.73163236

> <DFT_IDENTIFIER>
1723691820351

> <DFT_MACHINE>
158.39.114.73

> <XTB_IDENTIFIER>
NREC

> <XTB_MACHINE>
NREC

> <DESCRIPTOR_1>
.51279898260694403751

> <DESCRIPTOR_2>
13.534395124344465432

> <DESCRIPTOR_3>
.112556857356825000

> <WEIGHT_1>
.99991654648295997693

> <WEIGHT_2>
.99999998577917904440

> <WEIGHT_3>
.99999999980621051802

> <WEIGHT_4>
.99999988107021143486

> <FITNESS>
14.15856739532396458174

$$$$
