
  CDK     08132406423D

 49 53  0  0  0  0  0  0  0  0999 V2000
    0.3692   -0.5688   -3.3440 H   0  0  0  0  0  0  0  0  0  0  0  0
    1.5718   -0.3090   -3.3623 C   0  0  0  0  0  0  0  0  0  0  0  0
    1.4732   -0.1698   -4.4634 H   0  0  0  0  0  0  0  0  0  0  0  0
    1.6621    0.8190   -2.3926 C   0  0  0  0  0  0  0  0  0  0  0  0
    2.6225    0.9395   -1.8633 H   0  0  0  0  0  0  0  0  0  0  0  0
    1.1704    1.7620   -2.6847 H   0  0  0  0  0  0  0  0  0  0  0  0
    0.4505   -0.6588   -1.5744 Ru  0  0  0  0  0  0  0  0  0  0  0  0
    2.0587   -1.5480   -2.7630 C   0  0  0  0  0  0  0  0  0  0  0  0
    2.9711   -1.5244   -2.1548 H   0  0  0  0  0  0  0  0  0  0  0  0
    1.8366   -2.5006   -3.2724 H   0  0  0  0  0  0  0  0  0  0  0  0
    2.0787   -1.2014    0.1579 Cl  0  0  0  0  0  0  0  0  0  0  0  0
   -1.6049    0.1701   -2.5388 Cl  0  0  0  0  0  0  0  0  0  0  0  0
   -0.4007   -0.0601    0.1996 C   0  0  0  0  0  0  0  0  0  0  0  0
   -0.6246    1.2392    0.4968 N   0  0  0  0  0  0  0  0  0  0  0  0
   -1.4612    1.4007    1.7004 C   0  0  0  0  0  0  0  0  0  0  0  0
   -1.2741    0.0454    2.3708 C   0  0  0  0  0  0  0  0  0  0  0  0
   -0.9108   -0.8211    1.2269 N   0  0  0  0  0  0  0  0  0  0  0  0
   -1.1049    2.2488    2.3132 H   0  0  0  0  0  0  0  0  0  0  0  0
   -2.1786   -0.3381    2.8762 H   0  0  0  0  0  0  0  0  0  0  0  0
   -0.7012   -2.2133    1.4549 C   0  0  0  0  0  0  0  0  0  0  0  0
   -0.3341   -4.9511    2.0360 C   0  0  0  0  0  0  0  0  0  0  0  0
   -0.8433   -3.1706    0.4198 C   0  0  0  0  0  0  0  0  0  0  0  0
   -0.4032   -2.6414    2.7638 C   0  0  0  0  0  0  0  0  0  0  0  0
   -0.2189   -3.9980    3.0547 C   0  0  0  0  0  0  0  0  0  0  0  0
   -0.6447   -4.5257    0.7387 C   0  0  0  0  0  0  0  0  0  0  0  0
    0.0206   -4.3025    4.0833 H   0  0  0  0  0  0  0  0  0  0  0  0
   -0.7532   -5.2669   -0.0676 H   0  0  0  0  0  0  0  0  0  0  0  0
   -0.1779    2.3956   -0.2270 C   0  0  0  0  0  0  0  0  0  0  0  0
    0.6472    4.7060   -1.5564 C   0  0  0  0  0  0  0  0  0  0  0  0
   -1.0482    3.0295   -1.1250 C   0  0  0  0  0  0  0  0  0  0  0  0
    1.1033    2.9204    0.0621 C   0  0  0  0  0  0  0  0  0  0  0  0
    1.4967    4.0799   -0.6331 C   0  0  0  0  0  0  0  0  0  0  0  0
   -0.6328    4.1864   -1.7980 C   0  0  0  0  0  0  0  0  0  0  0  0
    2.4955    4.4977   -0.4363 H   0  0  0  0  0  0  0  0  0  0  0  0
   -1.3074    4.6729   -2.5164 H   0  0  0  0  0  0  0  0  0  0  0  0
    2.0091    2.2626    1.0652 C   0  0  0  0  0  0  0  0  0  0  0  0
    2.9533    2.8284    1.1742 H   0  0  0  0  0  0  0  0  0  0  0  0
    2.2460    1.2170    0.7727 H   0  0  0  0  0  0  0  0  0  0  0  0
    1.5312    2.2059    2.0665 H   0  0  0  0  0  0  0  0  0  0  0  0
   -1.1832   -2.7802   -0.9813 C   0  0  0  0  0  0  0  0  0  0  0  0
   -0.2452   -2.4787   -1.5669 H   0  0  0  0  0  0  0  0  0  0  0  0
   -1.9390   -1.9792   -1.0555 H   0  0  0  0  0  0  0  0  0  0  0  0
   -1.5348   -3.6504   -1.5686 H   0  0  0  0  0  0  0  0  0  0  0  0
   -0.4355    0.0793    3.1002 H   0  0  0  0  0  0  0  0  0  0  0  0
   -2.5143    1.5919    1.3987 H   0  0  0  0  0  0  0  0  0  0  0  0
   -2.0312    2.5836   -1.3174 H   0  0  0  0  0  0  0  0  0  0  0  0
    0.9856    5.6095   -2.0844 H   0  0  0  0  0  0  0  0  0  0  0  0
   -0.1930   -6.0199    2.2494 H   0  0  0  0  0  0  0  0  0  0  0  0
   -0.2899   -1.9079    3.5711 H   0  0  0  0  0  0  0  0  0  0  0  0
  1  2  1  0  0  0  0
  1  7  1  0  0  0  0
  2  3  1  0  0  0  0
  2  4  1  0  0  0  0
  4  5  1  0  0  0  0
  6  4  1  0  0  0  0
  7  8  1  0  0  0  0
  7  4  1  0  0  0  0
  8  2  1  0  0  0  0
  8  9  1  0  0  0  0
 10  8  1  0  0  0  0
  7 11  1  0  0  0  0
  7 12  1  0  0  0  0
 13 14  1  0  0  0  0
 13 17  1  0  0  0  0
 14 15  1  0  0  0  0
 15 18  1  0  0  0  0
 15 16  1  0  0  0  0
 16 19  1  0  0  0  0
 16 17  1  0  0  0  0
 20 23  2  0  0  0  0
 23 24  1  0  0  0  0
 21 24  2  0  0  0  0
 21 25  1  0  0  0  0
 22 25  2  0  0  0  0
 20 22  1  0  0  0  0
 24 26  1  0  0  0  0
 25 27  1  0  0  0  0
 17 20  1  0  0  0  0
 28 31  2  0  0  0  0
 31 32  1  0  0  0  0
 29 32  2  0  0  0  0
 29 33  1  0  0  0  0
 30 33  2  0  0  0  0
 28 30  1  0  0  0  0
 32 34  1  0  0  0  0
 33 35  1  0  0  0  0
 14 28  1  0  0  0  0
 36 37  1  0  0  0  0
 36 38  1  0  0  0  0
 36 39  1  0  0  0  0
 31 36  1  0  0  0  0
 40 41  1  0  0  0  0
 40 42  1  0  0  0  0
 40 43  1  0  0  0  0
 22 40  1  0  0  0  0
 16 44  1  0  0  0  0
 15 45  1  0  0  0  0
 30 46  1  0  0  0  0
 29 47  1  0  0  0  0
 21 48  1  0  0  0  0
 23 49  1  0  0  0  0
  7 13  1  0  0  0  0
M  END
>  <DFT-ENERGY>
-1899.80156723

$$$$
