
  CDK     08132408443D

 49 52  0  0  0  0  0  0  0  0999 V2000
    0.7384   -1.2428   -0.1258 Ru  0  0  0  0  0  0  0  0  0  0  0  0
    0.7140   -2.7950   -1.3190 C   0  0  0  0  0  0  0  0  0  0  0  0
    1.0615   -2.6001   -2.3493 H   0  0  0  0  0  0  0  0  0  0  0  0
    1.8850   -3.1701   -0.3223 C   0  0  0  0  0  0  0  0  0  0  0  0
    2.8005   -3.2622   -0.9340 H   0  0  0  0  0  0  0  0  0  0  0  0
    2.2092   -2.1237    0.8201 C   0  0  0  0  0  0  0  0  0  0  0  0
    1.9627   -2.4904    1.8325 H   0  0  0  0  0  0  0  0  0  0  0  0
    3.1976   -1.6444    0.7041 H   0  0  0  0  0  0  0  0  0  0  0  0
    1.5796   -4.1032    0.1846 H   0  0  0  0  0  0  0  0  0  0  0  0
   -0.1692   -3.4509   -1.2199 H   0  0  0  0  0  0  0  0  0  0  0  0
    2.2928   -0.1581   -1.5912 Cl  0  0  0  0  0  0  0  0  0  0  0  0
   -0.8250   -2.3124    1.3415 Cl  0  0  0  0  0  0  0  0  0  0  0  0
   -0.2656    0.4434    0.0461 C   0  0  0  0  0  0  0  0  0  0  0  0
   -1.1219    0.9335   -0.8764 N   0  0  0  0  0  0  0  0  0  0  0  0
   -1.8420    2.1096   -0.3439 C   0  0  0  0  0  0  0  0  0  0  0  0
   -0.9254    2.5372    0.8163 C   0  0  0  0  0  0  0  0  0  0  0  0
   -0.1999    1.2816    1.1034 N   0  0  0  0  0  0  0  0  0  0  0  0
   -1.9572    2.8916   -1.1178 H   0  0  0  0  0  0  0  0  0  0  0  0
   -1.4836    2.8882    1.7045 H   0  0  0  0  0  0  0  0  0  0  0  0
    0.8284    1.1515    2.0960 C   0  0  0  0  0  0  0  0  0  0  0  0
    2.8478    0.8378    3.9878 C   0  0  0  0  0  0  0  0  0  0  0  0
    0.4630    0.8195    3.4199 C   0  0  0  0  0  0  0  0  0  0  0  0
    2.1702    1.3071    1.7098 C   0  0  0  0  0  0  0  0  0  0  0  0
    3.1860    1.1453    2.6621 C   0  0  0  0  0  0  0  0  0  0  0  0
    1.5033    0.6763    4.3562 C   0  0  0  0  0  0  0  0  0  0  0  0
    4.2379    1.2556    2.3632 H   0  0  0  0  0  0  0  0  0  0  0  0
    1.2480    0.4104    5.3929 H   0  0  0  0  0  0  0  0  0  0  0  0
   -1.5895    0.1244   -1.9656 C   0  0  0  0  0  0  0  0  0  0  0  0
   -2.4506   -1.5014   -4.0563 C   0  0  0  0  0  0  0  0  0  0  0  0
   -2.3361   -1.0316   -1.6826 C   0  0  0  0  0  0  0  0  0  0  0  0
   -1.2399    0.4864   -3.2860 C   0  0  0  0  0  0  0  0  0  0  0  0
   -1.6963   -0.3483   -4.3226 C   0  0  0  0  0  0  0  0  0  0  0  0
   -2.7658   -1.8512   -2.7354 C   0  0  0  0  0  0  0  0  0  0  0  0
   -1.4322   -0.0945   -5.3601 H   0  0  0  0  0  0  0  0  0  0  0  0
   -3.3412   -2.7622   -2.5190 H   0  0  0  0  0  0  0  0  0  0  0  0
   -0.3455    1.6659   -3.5497 C   0  0  0  0  0  0  0  0  0  0  0  0
   -0.1768    1.8014   -4.6343 H   0  0  0  0  0  0  0  0  0  0  0  0
    0.6357    1.5027   -3.0533 H   0  0  0  0  0  0  0  0  0  0  0  0
   -0.7669    2.6117   -3.1502 H   0  0  0  0  0  0  0  0  0  0  0  0
   -0.9722    0.5484    3.7771 C   0  0  0  0  0  0  0  0  0  0  0  0
   -1.3464   -0.3077    3.1749 H   0  0  0  0  0  0  0  0  0  0  0  0
   -1.6303    1.4167    3.5653 H   0  0  0  0  0  0  0  0  0  0  0  0
   -1.0740    0.2998    4.8500 H   0  0  0  0  0  0  0  0  0  0  0  0
   -0.2027    3.3261    0.5126 H   0  0  0  0  0  0  0  0  0  0  0  0
   -2.8512    1.8029    0.0084 H   0  0  0  0  0  0  0  0  0  0  0  0
   -2.5379   -1.2968   -0.6345 H   0  0  0  0  0  0  0  0  0  0  0  0
   -2.7844   -2.1370   -4.8895 H   0  0  0  0  0  0  0  0  0  0  0  0
    3.6374    0.7104    4.7427 H   0  0  0  0  0  0  0  0  0  0  0  0
    2.4046    1.5147    0.6555 H   0  0  0  0  0  0  0  0  0  0  0  0
  2  4  1  0  0  0  0
  2  1  1  0  0  0  0
  2  3  1  0  0  0  0
  4  6  1  0  0  0  0
  4  5  1  0  0  0  0
  6  1  1  0  0  0  0
  6  8  1  0  0  0  0
  7  6  1  0  0  0  0
  9  4  1  0  0  0  0
 10  2  1  0  0  0  0
  1 11  1  0  0  0  0
  1 12  1  0  0  0  0
 13 14  1  0  0  0  0
 13 17  1  0  0  0  0
 14 15  1  0  0  0  0
 15 18  1  0  0  0  0
 15 16  1  0  0  0  0
 16 19  1  0  0  0  0
 16 17  1  0  0  0  0
 20 23  2  0  0  0  0
 23 24  1  0  0  0  0
 21 24  2  0  0  0  0
 21 25  1  0  0  0  0
 22 25  2  0  0  0  0
 20 22  1  0  0  0  0
 24 26  1  0  0  0  0
 25 27  1  0  0  0  0
 17 20  1  0  0  0  0
 28 31  2  0  0  0  0
 31 32  1  0  0  0  0
 29 32  2  0  0  0  0
 29 33  1  0  0  0  0
 30 33  2  0  0  0  0
 28 30  1  0  0  0  0
 32 34  1  0  0  0  0
 33 35  1  0  0  0  0
 14 28  1  0  0  0  0
 36 37  1  0  0  0  0
 36 38  1  0  0  0  0
 36 39  1  0  0  0  0
 31 36  1  0  0  0  0
 40 41  1  0  0  0  0
 40 42  1  0  0  0  0
 40 43  1  0  0  0  0
 22 40  1  0  0  0  0
 16 44  1  0  0  0  0
 15 45  1  0  0  0  0
 30 46  1  0  0  0  0
 29 47  1  0  0  0  0
 21 48  1  0  0  0  0
 23 49  1  0  0  0  0
  1 13  1  0  0  0  0
M  END
>  <DFT-ENERGY>
-1899.84286751

$$$$
