orthoTolyl-4_A1
  CDK     08122414013D

 63 67  0  0  0  0  0  0  0  0999 V2000
   -0.3584    0.4120   -0.1278 Ru  0  0  0  0  0  0  0  0  0  0  0  0
   -2.1362    1.8012   -0.1278 O   0  0  0  0  0  0  0  0  0  0  0  0
   -1.5686   -0.5921    0.8055 C   0  0  0  0  0  0  0  0  0  0  0  0
   -1.3358   -1.6148    1.0984 H   0  0  0  0  0  0  0  0  0  0  0  0
   -2.3717    3.0270   -0.9030 C   0  0  0  0  0  0  0  0  0  0  0  0
   -2.7899    3.7837   -0.2058 H   0  0  0  0  0  0  0  0  0  0  0  0
   -0.9484    3.3502   -1.3322 C   0  0  0  0  0  0  0  0  0  0  0  0
   -0.8781    4.3212   -1.8283 H   0  0  0  0  0  0  0  0  0  0  0  0
   -0.5533    2.5826   -2.0299 H   0  0  0  0  0  0  0  0  0  0  0  0
   -0.2692    3.3581   -0.4547 H   0  0  0  0  0  0  0  0  0  0  0  0
   -3.3011    2.6891   -2.0545 C   0  0  0  0  0  0  0  0  0  0  0  0
   -3.2930    3.4653   -2.8263 H   0  0  0  0  0  0  0  0  0  0  0  0
   -4.3362    2.5356   -1.7326 H   0  0  0  0  0  0  0  0  0  0  0  0
   -2.9752    1.7462   -2.5372 H   0  0  0  0  0  0  0  0  0  0  0  0
   -3.1284    1.2962    0.6706 C   0  0  0  0  0  0  0  0  0  0  0  0
   -4.2975    1.9492    1.0193 C   0  0  0  0  0  0  0  0  0  0  0  0
   -4.5161    2.9554    0.6692 H   0  0  0  0  0  0  0  0  0  0  0  0
   -5.1987    1.2917    1.8504 C   0  0  0  0  0  0  0  0  0  0  0  0
   -6.1212    1.8006    2.1382 H   0  0  0  0  0  0  0  0  0  0  0  0
   -4.9487    0.0064    2.3220 C   0  0  0  0  0  0  0  0  0  0  0  0
   -5.6734   -0.4879    2.9668 H   0  0  0  0  0  0  0  0  0  0  0  0
   -3.7790   -0.6352    1.9617 C   0  0  0  0  0  0  0  0  0  0  0  0
   -3.5858   -1.6465    2.3163 H   0  0  0  0  0  0  0  0  0  0  0  0
   -2.8435    0.0042    1.1463 C   0  0  0  0  0  0  0  0  0  0  0  0
   -0.9498   -0.1406   -2.2896 Cl  0  0  0  0  0  0  0  0  0  0  0  0
    0.4832    1.8017    1.6164 Cl  0  0  0  0  0  0  0  0  0  0  0  0
    1.1518   -0.8366   -0.2216 C   0  0  0  0  0  0  0  0  0  0  0  0
    1.4930   -2.0655    0.3357 N   0  0  0  0  0  0  0  0  0  0  0  0
    2.8375   -2.5788   -0.1178 C   0  0  0  0  0  0  0  0  0  0  0  0
    3.3347   -1.4887   -1.0862 C   0  0  0  0  0  0  0  0  0  0  0  0
    2.2098   -0.4950   -1.0778 N   0  0  0  0  0  0  0  0  0  0  0  0
    3.5071   -2.7074    0.7564 H   0  0  0  0  0  0  0  0  0  0  0  0
    3.5034   -1.8754   -2.1171 H   0  0  0  0  0  0  0  0  0  0  0  0
    2.2870    0.6795   -1.9123 C   0  0  0  0  0  0  0  0  0  0  0  0
    2.6019    3.0007   -3.4362 C   0  0  0  0  0  0  0  0  0  0  0  0
    2.3587    0.5775   -3.3246 C   0  0  0  0  0  0  0  0  0  0  0  0
    2.3299    1.9341   -1.2806 C   0  0  0  0  0  0  0  0  0  0  0  0
    2.4863    3.0918   -2.0468 C   0  0  0  0  0  0  0  0  0  0  0  0
    2.5318    1.7555   -4.0665 C   0  0  0  0  0  0  0  0  0  0  0  0
    2.5236    4.0622   -1.5535 H   0  0  0  0  0  0  0  0  0  0  0  0
    2.5985    1.6990   -5.1525 H   0  0  0  0  0  0  0  0  0  0  0  0
    0.7672   -2.9029    1.2594 C   0  0  0  0  0  0  0  0  0  0  0  0
   -0.5232   -4.6616    3.0024 C   0  0  0  0  0  0  0  0  0  0  0  0
    0.1772   -4.0785    0.7617 C   0  0  0  0  0  0  0  0  0  0  0  0
    0.7064   -2.5891    2.6377 C   0  0  0  0  0  0  0  0  0  0  0  0
    0.0525   -3.4894    3.4949 C   0  0  0  0  0  0  0  0  0  0  0  0
   -0.4662   -4.9548    1.6357 C   0  0  0  0  0  0  0  0  0  0  0  0
   -0.0044   -3.2659    4.5604 H   0  0  0  0  0  0  0  0  0  0  0  0
   -0.9253   -5.8645    1.2520 H   0  0  0  0  0  0  0  0  0  0  0  0
    1.2872   -1.3256    3.1641 C   0  0  0  0  0  0  0  0  0  0  0  0
    1.2326   -1.2400    4.2559 H   0  0  0  0  0  0  0  0  0  0  0  0
    0.7440   -0.4462    2.7514 H   0  0  0  0  0  0  0  0  0  0  0  0
    2.3389   -1.1933    2.8751 H   0  0  0  0  0  0  0  0  0  0  0  0
    2.2029   -0.7304   -4.0238 C   0  0  0  0  0  0  0  0  0  0  0  0
    1.1825   -1.1247   -3.8408 H   0  0  0  0  0  0  0  0  0  0  0  0
    2.9137   -1.4883   -3.6605 H   0  0  0  0  0  0  0  0  0  0  0  0
    2.3255   -0.6530   -5.1106 H   0  0  0  0  0  0  0  0  0  0  0  0
    4.2725   -1.0070   -0.7436 H   0  0  0  0  0  0  0  0  0  0  0  0
    2.7251   -3.5652   -0.6101 H   0  0  0  0  0  0  0  0  0  0  0  0
    0.2152   -4.2967   -0.3058 H   0  0  0  0  0  0  0  0  0  0  0  0
   -1.0216   -5.3491    3.6851 H   0  0  0  0  0  0  0  0  0  0  0  0
    2.7396    3.9018   -4.0319 H   0  0  0  0  0  0  0  0  0  0  0  0
    2.2530    2.0036   -0.1871 H   0  0  0  0  0  0  0  0  0  0  0  0
  2  1  1  0  0  0  0
  3  1  2  0  0  0  0
  4  3  1  0  0  0  0
  5  2  1  0  0  0  0
  6  5  1  0  0  0  0
  7  5  1  0  0  0  0
  8  7  1  0  0  0  0
  9  7  1  0  0  0  0
 10  7  1  0  0  0  0
 11  5  1  0  0  0  0
 12 11  1  0  0  0  0
 13 11  1  0  0  0  0
 14 11  1  0  0  0  0
 15  2  1  0  0  0  0
 15 24  1  0  0  0  0
 16 15  2  0  0  0  0
 17 16  1  0  0  0  0
 18 16  1  0  0  0  0
 19 18  1  0  0  0  0
 20 18  2  0  0  0  0
 21 20  1  0  0  0  0
 22 20  1  0  0  0  0
 22 24  2  0  0  0  0
 23 22  1  0  0  0  0
 24  3  1  0  0  0  0
  1 25  1  0  0  0  0
  1 26  1  0  0  0  0
 27 28  1  0  0  0  0
 27 31  1  0  0  0  0
 28 29  1  0  0  0  0
 29 32  1  0  0  0  0
 29 30  1  0  0  0  0
 30 33  1  0  0  0  0
 30 31  1  0  0  0  0
 34 37  2  0  0  0  0
 37 38  1  0  0  0  0
 35 38  2  0  0  0  0
 35 39  1  0  0  0  0
 36 39  2  0  0  0  0
 34 36  1  0  0  0  0
 38 40  1  0  0  0  0
 39 41  1  0  0  0  0
 31 34  1  0  0  0  0
 42 45  2  0  0  0  0
 45 46  1  0  0  0  0
 43 46  2  0  0  0  0
 43 47  1  0  0  0  0
 44 47  2  0  0  0  0
 42 44  1  0  0  0  0
 46 48  1  0  0  0  0
 47 49  1  0  0  0  0
 28 42  1  0  0  0  0
 50 51  1  0  0  0  0
 50 52  1  0  0  0  0
 50 53  1  0  0  0  0
 45 50  1  0  0  0  0
 54 55  1  0  0  0  0
 54 56  1  0  0  0  0
 54 57  1  0  0  0  0
 36 54  1  0  0  0  0
 30 58  1  0  0  0  0
 29 59  1  0  0  0  0
 44 60  1  0  0  0  0
 43 61  1  0  0  0  0
 35 62  1  0  0  0  0
 37 63  1  0  0  0  0
  1 27  1  0  0  0  0
M  END
> <FrozenCore-PM6_ENERGY>
159.038

> <RMSD_CONF_CG-CS>
0.341561

> <RMSD_CONF_GO-CS>
0.000000

> <UID>


> <DESCRIPTOR_DEFINITION_1>
desc1=( echo "1 * ( e( $hartree_to_kcalmol * ( ( $freeEnergyZ - $freeEnergyD ) - ( $freeEnergyX + 2*$G_Ethene - $freeEnergyD - 2*$G_Propene ) - $DDG_reference_HGII ) / $kT ) ) " | bc -l )

> <DESCRIPTOR_DEFINITION_2>
desc1=( echo "1 * ( e( $hartree_to_kcalmol * ( ( $freeEnergyZ - $freeEnergyD ) - ( $freeEnergyX + 2*$G_Ethene - $freeEnergyD - 2*$G_Propene ) - $DDG_reference_HGII ) / $kT ) ) " | bc -l )

> <DESCRIPTOR_DEFINITION_3>
desc1=( echo "1 * ( e( $hartree_to_kcalmol * ( ( $freeEnergyZ - $freeEnergyD ) - ( $freeEnergyX + 2*$G_Ethene - $freeEnergyD - 2*$G_Propene ) - $DDG_reference_HGII ) / $kT ) ) " | bc -l )

> <WEIGHT_DEFINITION_1>
w1=$( echo "1 / ( 1 + e( $hartree_to_kcalmol * ( ( ( $freeEnergyX + 2*$G_Ethene - $freeEnergyD - 2*$G_Propene ) ) - ( $DG_referenceProductionBarrier + $magnitude4 ) ) / $kT ) )" | bc -l )

> <WEIGHT_DEFINITION_2>
w1=$( echo "1 / ( 1 + e( $hartree_to_kcalmol * ( ( ( $freeEnergyX + 2*$G_Ethene - $freeEnergyD - 2*$G_Propene ) ) - ( $DG_referenceProductionBarrier + $magnitude4 ) ) / $kT ) )" | bc -l )

> <WEIGHT_DEFINITION_3>
w1=$( echo "1 / ( 1 + e( $hartree_to_kcalmol * ( ( ( $freeEnergyX + 2*$G_Ethene - $freeEnergyD - 2*$G_Propene ) ) - ( $DG_referenceProductionBarrier + $magnitude4 ) ) / $kT ) )" | bc -l )

> <WEIGHT_DEFINITION_4>
w1=$( echo "1 / ( 1 + e( $hartree_to_kcalmol * ( ( ( $freeEnergyX + 2*$G_Ethene - $freeEnergyD - 2*$G_Propene ) ) - ( $DG_referenceProductionBarrier + $magnitude4 ) ) / $kT ) )" | bc -l )

> <CALCULATION_OF_OVERALL_FITNESS>
fitness=$( echo "( $desc1 + $desc2 + $desc3 ) * ( $w1 * $w2 * $w3 * $w4 )" | bc -l )

> <freeEnergyA>
-2245.07771455

> <freeEnergyF>
-2245.05994058

> <freeEnergyE>
-2245.07771455

> <freeEnergyC>
-1899.82225421

> <freeEnergyL>
-767.216892687

> <freeEnergyX>
-1978.35238615

> <freeEnergyZ>
-1899.80156726

> <freeEnergyD>
-1899.84286746

> <G_Propene>
-117.738020895

> <G_Ethene>
-78.4716324751

> <G_HoveydaProd>
-502.204109499

> <G_SIMes>
-924.27249048

> <G_HG_RuCl2_SIMes>
-2402.13728523

> <DG_referenceProductionBarrier>
0.01468968

> <DG_referencePrecursorStabilityHII>
-0.0052201621

> <DG_referencePrecursorStabilityHI>
0.0117775312

> <DDG_referencePrecursorStability>
.0169976933

> <DG_referenceSynt>
0.0226072217

> <hartree_to_kcalmol>
627.49467516

> <boltzmann_constant>
0.0000000000000000000000138066

> <avogadro_number>
602214000000000000000000

> <jmol_to_kcalmol>
0.00023901

> <temp>
313.15

> <kT>
.6223089948281258706000000000

> <magnitude1>
1.43290809

> <magnitude2>
2.86581618

> <magnitude3>
4.29872427

> <magnitude4>
5.73163236

> <DFT_IDENTIFIER>
1723535683239

> <DFT_MACHINE>
158.39.114.73

> <XTB_IDENTIFIER>
NREC

> <XTB_MACHINE>
NREC

> <DESCRIPTOR_1>
.01463775959283009602

> <DESCRIPTOR_2>
11.321290429469413032

> <DESCRIPTOR_3>
0.0000000001

> <WEIGHT_1>
.99972959525739558047

> <WEIGHT_2>
.99999999575059864389

> <WEIGHT_3>
.99999999930851466886

> <WEIGHT_4>
.99999835364657633870

> <FITNESS>
11.33284418652613532721

$$$$
