
  CDK     08132403343D

 55 58  0  0  0  0  0  0  0  0999 V2000
    2.1934    0.3966   -3.0106 C   0  0  0  0  0  0  0  0  0  0  0  0
    2.5125   -0.6601   -2.9745 H   0  0  0  0  0  0  0  0  0  0  0  0
    2.5962    0.8761   -3.9311 H   0  0  0  0  0  0  0  0  0  0  0  0
    2.6497    0.9262   -2.1510 H   0  0  0  0  0  0  0  0  0  0  0  0
    0.6892    0.5309   -3.0136 C   0  0  0  0  0  0  0  0  0  0  0  0
    0.2964    1.5627   -3.0894 H   0  0  0  0  0  0  0  0  0  0  0  0
   -0.1854   -0.4797   -3.4966 C   0  0  0  0  0  0  0  0  0  0  0  0
    0.2662   -1.4695   -3.6859 H   0  0  0  0  0  0  0  0  0  0  0  0
   -1.4253   -0.1071   -4.2764 C   0  0  0  0  0  0  0  0  0  0  0  0
   -2.1368   -0.9482   -4.3767 H   0  0  0  0  0  0  0  0  0  0  0  0
   -1.1199    0.1982   -5.3006 H   0  0  0  0  0  0  0  0  0  0  0  0
   -1.9394    0.7511   -3.8001 H   0  0  0  0  0  0  0  0  0  0  0  0
   -1.4023   -1.3163   -1.7063 C   0  0  0  0  0  0  0  0  0  0  0  0
   -2.4274   -0.9378   -1.9077 H   0  0  0  0  0  0  0  0  0  0  0  0
   -1.2149   -2.4043   -1.8368 H   0  0  0  0  0  0  0  0  0  0  0  0
   -0.0794   -0.1976   -1.1117 Ru  0  0  0  0  0  0  0  0  0  0  0  0
   -1.6101    1.6692   -1.1726 Cl  0  0  0  0  0  0  0  0  0  0  0  0
    1.4239   -2.0808   -0.9792 Cl  0  0  0  0  0  0  0  0  0  0  0  0
   -0.0159   -0.1166    0.8645 C   0  0  0  0  0  0  0  0  0  0  0  0
   -0.8740   -0.6377    1.7753 N   0  0  0  0  0  0  0  0  0  0  0  0
   -0.3275   -0.5235    3.1443 C   0  0  0  0  0  0  0  0  0  0  0  0
    0.7390    0.5697    2.9731 C   0  0  0  0  0  0  0  0  0  0  0  0
    1.0006    0.4954    1.5238 N   0  0  0  0  0  0  0  0  0  0  0  0
   -1.1209   -0.2497    3.8654 H   0  0  0  0  0  0  0  0  0  0  0  0
    1.6571    0.3763    3.5597 H   0  0  0  0  0  0  0  0  0  0  0  0
    1.9453    1.3202    0.8317 C   0  0  0  0  0  0  0  0  0  0  0  0
    3.7640    2.9328   -0.5378 C   0  0  0  0  0  0  0  0  0  0  0  0
    3.3047    0.9275    0.7983 C   0  0  0  0  0  0  0  0  0  0  0  0
    1.4928    2.4796    0.1765 C   0  0  0  0  0  0  0  0  0  0  0  0
    2.4077    3.2864   -0.5167 C   0  0  0  0  0  0  0  0  0  0  0  0
    4.2005    1.7654    0.1095 C   0  0  0  0  0  0  0  0  0  0  0  0
    2.0544    4.1877   -1.0369 H   0  0  0  0  0  0  0  0  0  0  0  0
    5.2620    1.4792    0.0637 H   0  0  0  0  0  0  0  0  0  0  0  0
   -1.9016   -1.5827    1.4526 C   0  0  0  0  0  0  0  0  0  0  0  0
   -3.8856   -3.4336    0.8216 C   0  0  0  0  0  0  0  0  0  0  0  0
   -1.5435   -2.9036    1.1393 C   0  0  0  0  0  0  0  0  0  0  0  0
   -3.2459   -1.1498    1.4429 C   0  0  0  0  0  0  0  0  0  0  0  0
   -4.2279   -2.1074    1.1244 C   0  0  0  0  0  0  0  0  0  0  0  0
   -2.5411   -3.8353    0.8221 C   0  0  0  0  0  0  0  0  0  0  0  0
   -5.2831   -1.7958    1.1032 H   0  0  0  0  0  0  0  0  0  0  0  0
   -2.2660   -4.8682    0.5661 H   0  0  0  0  0  0  0  0  0  0  0  0
   -3.5897    0.2922    1.6957 C   0  0  0  0  0  0  0  0  0  0  0  0
   -4.6851    0.4461    1.6938 H   0  0  0  0  0  0  0  0  0  0  0  0
   -3.1355    0.9330    0.9081 H   0  0  0  0  0  0  0  0  0  0  0  0
   -3.1937    0.6480    2.6694 H   0  0  0  0  0  0  0  0  0  0  0  0
    3.7434   -0.3743    1.4091 C   0  0  0  0  0  0  0  0  0  0  0  0
    3.1752   -1.2088    0.9441 H   0  0  0  0  0  0  0  0  0  0  0  0
    3.5551   -0.4104    2.5024 H   0  0  0  0  0  0  0  0  0  0  0  0
    4.8243   -0.5437    1.2470 H   0  0  0  0  0  0  0  0  0  0  0  0
    0.3538    1.5795    3.2367 H   0  0  0  0  0  0  0  0  0  0  0  0
    0.1139   -1.4964    3.4542 H   0  0  0  0  0  0  0  0  0  0  0  0
   -0.4774   -3.1699    1.1010 H   0  0  0  0  0  0  0  0  0  0  0  0
   -4.6763   -4.1568    0.5736 H   0  0  0  0  0  0  0  0  0  0  0  0
    4.4900    3.5610   -1.0742 H   0  0  0  0  0  0  0  0  0  0  0  0
    0.4205    2.7225    0.1951 H   0  0  0  0  0  0  0  0  0  0  0  0
  1  2  1  0  0  0  0
  1  5  1  0  0  0  0
  3  1  1  0  0  0  0
  4  1  1  0  0  0  0
  5  6  1  0  0  0  0
  5 16  1  0  0  0  0
  5  7  1  0  0  0  0
  7  9  1  0  0  0  0
  7  8  1  0  0  0  0
  9 10  1  0  0  0  0
 11  9  1  0  0  0  0
 12  9  1  0  0  0  0
 13 14  1  0  0  0  0
 13 15  1  0  0  0  0
 13  7  1  0  0  0  0
 16 13  1  0  0  0  0
 16 17  1  0  0  0  0
 16 18  1  0  0  0  0
 19 20  1  0  0  0  0
 19 23  1  0  0  0  0
 20 21  1  0  0  0  0
 21 24  1  0  0  0  0
 21 22  1  0  0  0  0
 22 25  1  0  0  0  0
 22 23  1  0  0  0  0
 26 29  2  0  0  0  0
 29 30  1  0  0  0  0
 27 30  2  0  0  0  0
 27 31  1  0  0  0  0
 28 31  2  0  0  0  0
 26 28  1  0  0  0  0
 30 32  1  0  0  0  0
 31 33  1  0  0  0  0
 23 26  1  0  0  0  0
 34 37  2  0  0  0  0
 37 38  1  0  0  0  0
 35 38  2  0  0  0  0
 35 39  1  0  0  0  0
 36 39  2  0  0  0  0
 34 36  1  0  0  0  0
 38 40  1  0  0  0  0
 39 41  1  0  0  0  0
 20 34  1  0  0  0  0
 42 43  1  0  0  0  0
 42 44  1  0  0  0  0
 42 45  1  0  0  0  0
 37 42  1  0  0  0  0
 46 47  1  0  0  0  0
 46 48  1  0  0  0  0
 46 49  1  0  0  0  0
 28 46  1  0  0  0  0
 22 50  1  0  0  0  0
 21 51  1  0  0  0  0
 36 52  1  0  0  0  0
 35 53  1  0  0  0  0
 27 54  1  0  0  0  0
 29 55  1  0  0  0  0
 16 19  1  0  0  0  0
M  END
>  <DFT-ENERGY>
-1978.35238632

$$$$
