
  CDK     08132405193D

 80 83  0  0  0  0  0  0  0  0999 V2000
   -1.2770   -3.9185   -2.5292 C   0  0  0  0  0  0  0  0  0  0  0  0
   -0.2349   -3.9257   -2.8931 H   0  0  0  0  0  0  0  0  0  0  0  0
   -1.7694   -4.8796   -2.7984 H   0  0  0  0  0  0  0  0  0  0  0  0
   -1.8242   -3.1178   -3.0661 H   0  0  0  0  0  0  0  0  0  0  0  0
   -1.3543   -3.7457   -1.0297 C   0  0  0  0  0  0  0  0  0  0  0  0
   -2.3752   -3.7236   -0.6053 H   0  0  0  0  0  0  0  0  0  0  0  0
   -0.3624   -4.2529   -0.1468 C   0  0  0  0  0  0  0  0  0  0  0  0
    0.6014   -4.5267   -0.6115 H   0  0  0  0  0  0  0  0  0  0  0  0
   -0.7490   -4.9466    1.1375 C   0  0  0  0  0  0  0  0  0  0  0  0
    0.1091   -5.0861    1.8216 H   0  0  0  0  0  0  0  0  0  0  0  0
   -1.1447   -5.9544    0.8856 H   0  0  0  0  0  0  0  0  0  0  0  0
   -1.5489   -4.3832    1.6573 H   0  0  0  0  0  0  0  0  0  0  0  0
    0.6818   -2.4782    0.9238 C   0  0  0  0  0  0  0  0  0  0  0  0
    0.3549   -2.6358    1.9732 H   0  0  0  0  0  0  0  0  0  0  0  0
    1.7415   -2.7099    0.6844 H   0  0  0  0  0  0  0  0  0  0  0  0
   -0.4932   -1.8161   -0.3264 Ru  0  0  0  0  0  0  0  0  0  0  0  0
   -2.3384   -1.8775    1.2236 Cl  0  0  0  0  0  0  0  0  0  0  0  0
    1.2792   -2.0381   -1.9463 Cl  0  0  0  0  0  0  0  0  0  0  0  0
   -0.4003    0.1531   -0.4974 C   0  0  0  0  0  0  0  0  0  0  0  0
   -1.7604    2.1820   -1.3936 C   0  0  0  0  0  0  0  0  0  0  0  0
    0.3285    2.5131   -0.0134 C   0  0  0  0  0  0  0  0  0  0  0  0
   -1.1710    2.8235   -0.1414 C   0  0  0  0  0  0  0  0  0  0  0  0
    0.3941    0.9946    0.1937 N   0  0  0  0  0  0  0  0  0  0  0  0
   -1.3410    0.6926   -1.5998 C   0  0  0  0  0  0  0  0  0  0  0  0
   -1.4610    2.7750   -2.2805 H   0  0  0  0  0  0  0  0  0  0  0  0
   -1.6819    2.4494    0.7686 H   0  0  0  0  0  0  0  0  0  0  0  0
   -2.8648    2.2517   -1.3470 H   0  0  0  0  0  0  0  0  0  0  0  0
   -1.3173    3.9227   -0.1705 H   0  0  0  0  0  0  0  0  0  0  0  0
   -0.6825    0.4756   -3.0037 C   0  0  0  0  0  0  0  0  0  0  0  0
   -2.6043   -0.2190   -1.5806 C   0  0  0  0  0  0  0  0  0  0  0  0
    0.9498    3.2709    1.1671 C   0  0  0  0  0  0  0  0  0  0  0  0
    0.4720    3.0457    2.1322 H   0  0  0  0  0  0  0  0  0  0  0  0
    0.8310    4.3543    0.9674 H   0  0  0  0  0  0  0  0  0  0  0  0
    2.0299    3.0594    1.2685 H   0  0  0  0  0  0  0  0  0  0  0  0
    1.0933    2.9547   -1.2738 C   0  0  0  0  0  0  0  0  0  0  0  0
    0.8918    4.0309   -1.4494 H   0  0  0  0  0  0  0  0  0  0  0  0
    0.7951    2.4053   -2.1790 H   0  0  0  0  0  0  0  0  0  0  0  0
    2.1813    2.8349   -1.1452 H   0  0  0  0  0  0  0  0  0  0  0  0
    1.2317    0.5337    1.3014 C   0  0  0  0  0  0  0  0  0  0  0  0
    2.9152   -0.0362    3.4826 C   0  0  0  0  0  0  0  0  0  0  0  0
    2.6202    0.3188    1.0798 C   0  0  0  0  0  0  0  0  0  0  0  0
    0.6694    0.4296    2.6102 C   0  0  0  0  0  0  0  0  0  0  0  0
    1.5463    0.1568    3.6779 C   0  0  0  0  0  0  0  0  0  0  0  0
    3.4358    0.0263    2.1902 C   0  0  0  0  0  0  0  0  0  0  0  0
    1.1335    0.0861    4.6932 H   0  0  0  0  0  0  0  0  0  0  0  0
    4.5097   -0.1428    2.0285 H   0  0  0  0  0  0  0  0  0  0  0  0
    3.5736   -0.2453    4.3385 H   0  0  0  0  0  0  0  0  0  0  0  0
   -0.8187    0.5454    2.9497 C   0  0  0  0  0  0  0  0  0  0  0  0
   -1.3970    0.3922    2.0181 H   0  0  0  0  0  0  0  0  0  0  0  0
    3.3063    0.4167   -0.2786 C   0  0  0  0  0  0  0  0  0  0  0  0
    2.5230    0.5174   -1.0546 H   0  0  0  0  0  0  0  0  0  0  0  0
    4.2519    1.6346   -0.3261 C   0  0  0  0  0  0  0  0  0  0  0  0
    5.1138    1.4851    0.3564 H   0  0  0  0  0  0  0  0  0  0  0  0
    3.7600    2.5783   -0.0189 H   0  0  0  0  0  0  0  0  0  0  0  0
    4.6565    1.7736   -1.3494 H   0  0  0  0  0  0  0  0  0  0  0  0
    4.1166   -0.8502   -0.6058 C   0  0  0  0  0  0  0  0  0  0  0  0
    4.9708   -0.9767    0.0911 H   0  0  0  0  0  0  0  0  0  0  0  0
    4.5316   -0.7743   -1.6311 H   0  0  0  0  0  0  0  0  0  0  0  0
    3.4806   -1.7526   -0.5771 H   0  0  0  0  0  0  0  0  0  0  0  0
   -1.2183    1.8940    3.5839 C   0  0  0  0  0  0  0  0  0  0  0  0
   -1.2056    2.7415    2.8739 H   0  0  0  0  0  0  0  0  0  0  0  0
   -0.5502    2.1499    4.4328 H   0  0  0  0  0  0  0  0  0  0  0  0
   -2.2511    1.8223    3.9811 H   0  0  0  0  0  0  0  0  0  0  0  0
   -1.2447   -0.5675    3.9291 C   0  0  0  0  0  0  0  0  0  0  0  0
   -0.8767   -1.5595    3.6117 H   0  0  0  0  0  0  0  0  0  0  0  0
   -2.3496   -0.6262    3.9630 H   0  0  0  0  0  0  0  0  0  0  0  0
   -0.8850   -0.3620    4.9590 H   0  0  0  0  0  0  0  0  0  0  0  0
   -2.2778   -1.2900   -1.6524 H   0  0  0  0  0  0  0  0  0  0  0  0
   -3.1166   -0.1416   -0.6038 H   0  0  0  0  0  0  0  0  0  0  0  0
   -3.5718    0.0251   -2.7443 C   0  0  0  0  0  0  0  0  0  0  0  0
   -4.0078    1.0450   -2.6569 H   0  0  0  0  0  0  0  0  0  0  0  0
   -4.4250   -0.6785   -2.6557 H   0  0  0  0  0  0  0  0  0  0  0  0
    0.2420    1.0736   -3.1067 H   0  0  0  0  0  0  0  0  0  0  0  0
   -0.3443   -0.5773   -3.0680 H   0  0  0  0  0  0  0  0  0  0  0  0
   -1.6384    0.7753   -4.1640 C   0  0  0  0  0  0  0  0  0  0  0  0
   -1.0955    0.6209   -5.1194 H   0  0  0  0  0  0  0  0  0  0  0  0
   -1.9492    1.8443   -4.1561 H   0  0  0  0  0  0  0  0  0  0  0  0
   -2.8802   -0.1185   -4.1021 C   0  0  0  0  0  0  0  0  0  0  0  0
   -2.5690   -1.1780   -4.2453 H   0  0  0  0  0  0  0  0  0  0  0  0
   -3.5829    0.1196   -4.9272 H   0  0  0  0  0  0  0  0  0  0  0  0
  1  2  1  0  0  0  0
  1  5  1  0  0  0  0
  3  1  1  0  0  0  0
  4  1  1  0  0  0  0
  5  6  1  0  0  0  0
  5 16  1  0  0  0  0
  5  7  1  0  0  0  0
  7  9  1  0  0  0  0
  7  8  1  0  0  0  0
  9 10  1  0  0  0  0
 11  9  1  0  0  0  0
 12  9  1  0  0  0  0
 13 14  1  0  0  0  0
 13 15  1  0  0  0  0
 13  7  1  0  0  0  0
 16 13  1  0  0  0  0
 16 17  1  0  0  0  0
 16 18  1  0  0  0  0
 19 23  1  0  0  0  0
 19 24  1  0  0  0  0
 20 25  1  0  0  0  0
 20 27  1  0  0  0  0
 20 22  1  0  0  0  0
 20 24  1  0  0  0  0
 21 23  1  0  0  0  0
 21 22  1  0  0  0  0
 22 26  1  0  0  0  0
 22 28  1  0  0  0  0
 24 29  1  0  0  0  0
 24 30  1  0  0  0  0
 31 32  1  0  0  0  0
 31 33  1  0  0  0  0
 31 34  1  0  0  0  0
 21 31  1  0  0  0  0
 35 36  1  0  0  0  0
 35 37  1  0  0  0  0
 35 38  1  0  0  0  0
 21 35  1  0  0  0  0
 39 42  2  0  0  0  0
 42 43  1  0  0  0  0
 40 43  2  0  0  0  0
 40 44  1  0  0  0  0
 41 44  2  0  0  0  0
 39 41  1  0  0  0  0
 43 45  1  0  0  0  0
 44 46  1  0  0  0  0
 40 47  1  0  0  0  0
 23 39  1  0  0  0  0
 48 49  1  0  0  0  0
 42 48  1  0  0  0  0
 50 51  1  0  0  0  0
 41 50  1  0  0  0  0
 52 53  1  0  0  0  0
 52 54  1  0  0  0  0
 52 55  1  0  0  0  0
 50 52  1  0  0  0  0
 56 57  1  0  0  0  0
 56 58  1  0  0  0  0
 56 59  1  0  0  0  0
 50 56  1  0  0  0  0
 60 61  1  0  0  0  0
 60 62  1  0  0  0  0
 60 63  1  0  0  0  0
 48 60  1  0  0  0  0
 64 65  1  0  0  0  0
 64 66  1  0  0  0  0
 64 67  1  0  0  0  0
 48 64  1  0  0  0  0
 30 68  1  0  0  0  0
 30 69  1  0  0  0  0
 70 71  1  0  0  0  0
 70 72  1  0  0  0  0
 30 70  1  0  0  0  0
 29 73  1  0  0  0  0
 29 74  1  0  0  0  0
 75 76  1  0  0  0  0
 75 77  1  0  0  0  0
 29 75  1  0  0  0  0
 78 79  1  0  0  0  0
 78 80  1  0  0  0  0
 75 78  1  0  0  0  0
 70 78  1  0  0  0  0
 16 19  1  0  0  0  0
M  END
>  <DFT-ENERGY>
-2201.44837561

$$$$
