
  CDK     08142419353D

 74 77  0  0  0  0  0  0  0  0999 V2000
    1.8949    0.7690   -0.8387 Ru  0  0  0  0  0  0  0  0  0  0  0  0
    3.3355    1.0374   -2.1737 C   0  0  0  0  0  0  0  0  0  0  0  0
    2.9911    1.4338   -3.1446 H   0  0  0  0  0  0  0  0  0  0  0  0
    3.6841    2.1647   -1.1318 C   0  0  0  0  0  0  0  0  0  0  0  0
    3.5961    3.1310   -1.6604 H   0  0  0  0  0  0  0  0  0  0  0  0
    2.7418    2.2508    0.1353 C   0  0  0  0  0  0  0  0  0  0  0  0
    3.2409    1.9582    1.0760 H   0  0  0  0  0  0  0  0  0  0  0  0
    2.1601    3.1857    0.1837 H   0  0  0  0  0  0  0  0  0  0  0  0
    4.7004    1.9452   -0.7564 H   0  0  0  0  0  0  0  0  0  0  0  0
    4.0929    0.2354   -2.2175 H   0  0  0  0  0  0  0  0  0  0  0  0
    0.5896    2.3105   -2.1614 Cl  0  0  0  0  0  0  0  0  0  0  0  0
    3.4126   -0.7171    0.2426 Cl  0  0  0  0  0  0  0  0  0  0  0  0
    0.2386   -0.2741   -0.6897 C   0  0  0  0  0  0  0  0  0  0  0  0
   -1.4808   -1.7471   -1.8829 C   0  0  0  0  0  0  0  0  0  0  0  0
   -2.1561   -0.2969    0.0650 C   0  0  0  0  0  0  0  0  0  0  0  0
   -2.2198   -1.7024   -0.5521 C   0  0  0  0  0  0  0  0  0  0  0  0
   -0.6755    0.0567    0.2371 N   0  0  0  0  0  0  0  0  0  0  0  0
    0.0119   -1.4021   -1.7039 C   0  0  0  0  0  0  0  0  0  0  0  0
   -1.9428   -1.0420   -2.6022 H   0  0  0  0  0  0  0  0  0  0  0  0
   -1.7918   -2.4411    0.1555 H   0  0  0  0  0  0  0  0  0  0  0  0
   -1.5743   -2.7530   -2.3341 H   0  0  0  0  0  0  0  0  0  0  0  0
   -3.2875   -1.9706   -0.6852 H   0  0  0  0  0  0  0  0  0  0  0  0
    0.6609   -1.0209   -3.0594 C   0  0  0  0  0  0  0  0  0  0  0  0
    0.7709   -2.6494   -1.1304 C   0  0  0  0  0  0  0  0  0  0  0  0
   -2.8881   -0.2655    1.4076 C   0  0  0  0  0  0  0  0  0  0  0  0
   -2.5513   -1.0599    2.0955 H   0  0  0  0  0  0  0  0  0  0  0  0
   -3.9685   -0.4143    1.2131 H   0  0  0  0  0  0  0  0  0  0  0  0
   -2.7657    0.7026    1.9248 H   0  0  0  0  0  0  0  0  0  0  0  0
   -2.8219    0.7002   -0.9140 C   0  0  0  0  0  0  0  0  0  0  0  0
   -3.7221    0.2247   -1.3533 H   0  0  0  0  0  0  0  0  0  0  0  0
   -2.1376    0.9921   -1.7327 H   0  0  0  0  0  0  0  0  0  0  0  0
   -3.1537    1.6182   -0.4035 H   0  0  0  0  0  0  0  0  0  0  0  0
   -0.2032    0.7979    1.4156 C   0  0  0  0  0  0  0  0  0  0  0  0
    0.6571    2.0782    3.7728 C   0  0  0  0  0  0  0  0  0  0  0  0
   -0.4547    2.1919    1.5912 C   0  0  0  0  0  0  0  0  0  0  0  0
    0.4982    0.0455    2.4148 C   0  0  0  0  0  0  0  0  0  0  0  0
    0.9076    0.7182    3.5795 C   0  0  0  0  0  0  0  0  0  0  0  0
   -0.0083    2.7976    2.7826 C   0  0  0  0  0  0  0  0  0  0  0  0
    1.4445    0.1568    4.3535 H   0  0  0  0  0  0  0  0  0  0  0  0
   -0.1971    3.8701    2.9287 H   0  0  0  0  0  0  0  0  0  0  0  0
    0.9884    2.5772    4.6952 H   0  0  0  0  0  0  0  0  0  0  0  0
    0.8454   -1.4400    2.2996 C   0  0  0  0  0  0  0  0  0  0  0  0
    1.0744   -1.6382    1.2376 H   0  0  0  0  0  0  0  0  0  0  0  0
   -1.2036    3.0975    0.6169 C   0  0  0  0  0  0  0  0  0  0  0  0
   -1.3170    2.5562   -0.3372 H   0  0  0  0  0  0  0  0  0  0  0  0
   -2.5871    3.4802    1.1818 C   0  0  0  0  0  0  0  0  0  0  0  0
   -2.4791    4.1081    2.0904 H   0  0  0  0  0  0  0  0  0  0  0  0
   -3.2008    2.6035    1.4652 H   0  0  0  0  0  0  0  0  0  0  0  0
   -3.1580    4.0690    0.4349 H   0  0  0  0  0  0  0  0  0  0  0  0
   -0.4390    4.3917    0.2867 C   0  0  0  0  0  0  0  0  0  0  0  0
   -0.2735    5.0238    1.1829 H   0  0  0  0  0  0  0  0  0  0  0  0
   -1.0294    4.9897   -0.4364 H   0  0  0  0  0  0  0  0  0  0  0  0
    0.5298    4.1739   -0.1956 H   0  0  0  0  0  0  0  0  0  0  0  0
   -0.3018   -2.3655    2.7420 C   0  0  0  0  0  0  0  0  0  0  0  0
   -1.1780   -2.3129    2.0721 H   0  0  0  0  0  0  0  0  0  0  0  0
   -0.6413   -2.1179    3.7693 H   0  0  0  0  0  0  0  0  0  0  0  0
    0.0461   -3.4188    2.7455 H   0  0  0  0  0  0  0  0  0  0  0  0
    2.1066   -1.8238    3.0920 C   0  0  0  0  0  0  0  0  0  0  0  0
    2.9410   -1.1284    2.8903 H   0  0  0  0  0  0  0  0  0  0  0  0
    2.4341   -2.8357    2.7818 H   0  0  0  0  0  0  0  0  0  0  0  0
    1.9135   -1.8636    4.1848 H   0  0  0  0  0  0  0  0  0  0  0  0
    1.7921   -2.3340   -0.8326 H   0  0  0  0  0  0  0  0  0  0  0  0
    0.2671   -2.9962   -0.2056 H   0  0  0  0  0  0  0  0  0  0  0  0
    0.8671   -3.8089   -2.1327 C   0  0  0  0  0  0  0  0  0  0  0  0
   -0.1377   -4.2484   -2.3214 H   0  0  0  0  0  0  0  0  0  0  0  0
    1.4701   -4.6179   -1.6706 H   0  0  0  0  0  0  0  0  0  0  0  0
    0.1445   -0.1360   -3.4790 H   0  0  0  0  0  0  0  0  0  0  0  0
    1.7073   -0.6950   -2.8650 H   0  0  0  0  0  0  0  0  0  0  0  0
    0.7129   -2.1855   -4.0529 C   0  0  0  0  0  0  0  0  0  0  0  0
    1.1879   -1.8373   -4.9930 H   0  0  0  0  0  0  0  0  0  0  0  0
   -0.3164   -2.5052   -4.3290 H   0  0  0  0  0  0  0  0  0  0  0  0
    1.4862   -3.3698   -3.4633 C   0  0  0  0  0  0  0  0  0  0  0  0
    2.5417   -3.0621   -3.2896 H   0  0  0  0  0  0  0  0  0  0  0  0
    1.5137   -4.2186   -4.1776 H   0  0  0  0  0  0  0  0  0  0  0  0
  2  4  1  0  0  0  0
  2  1  1  0  0  0  0
  2  3  1  0  0  0  0
  4  6  1  0  0  0  0
  4  5  1  0  0  0  0
  6  1  1  0  0  0  0
  6  8  1  0  0  0  0
  7  6  1  0  0  0  0
  9  4  1  0  0  0  0
 10  2  1  0  0  0  0
  1 11  1  0  0  0  0
  1 12  1  0  0  0  0
 13 17  1  0  0  0  0
 13 18  1  0  0  0  0
 14 19  1  0  0  0  0
 14 21  1  0  0  0  0
 14 16  1  0  0  0  0
 14 18  1  0  0  0  0
 15 17  1  0  0  0  0
 15 16  1  0  0  0  0
 16 20  1  0  0  0  0
 16 22  1  0  0  0  0
 18 23  1  0  0  0  0
 18 24  1  0  0  0  0
 25 26  1  0  0  0  0
 25 27  1  0  0  0  0
 25 28  1  0  0  0  0
 15 25  1  0  0  0  0
 29 30  1  0  0  0  0
 29 31  1  0  0  0  0
 29 32  1  0  0  0  0
 15 29  1  0  0  0  0
 33 36  2  0  0  0  0
 36 37  1  0  0  0  0
 34 37  2  0  0  0  0
 34 38  1  0  0  0  0
 35 38  2  0  0  0  0
 33 35  1  0  0  0  0
 37 39  1  0  0  0  0
 38 40  1  0  0  0  0
 34 41  1  0  0  0  0
 17 33  1  0  0  0  0
 42 43  1  0  0  0  0
 36 42  1  0  0  0  0
 44 45  1  0  0  0  0
 35 44  1  0  0  0  0
 46 47  1  0  0  0  0
 46 48  1  0  0  0  0
 46 49  1  0  0  0  0
 44 46  1  0  0  0  0
 50 51  1  0  0  0  0
 50 52  1  0  0  0  0
 50 53  1  0  0  0  0
 44 50  1  0  0  0  0
 54 55  1  0  0  0  0
 54 56  1  0  0  0  0
 54 57  1  0  0  0  0
 42 54  1  0  0  0  0
 58 59  1  0  0  0  0
 58 60  1  0  0  0  0
 58 61  1  0  0  0  0
 42 58  1  0  0  0  0
 24 62  1  0  0  0  0
 24 63  1  0  0  0  0
 64 65  1  0  0  0  0
 64 66  1  0  0  0  0
 24 64  1  0  0  0  0
 23 67  1  0  0  0  0
 23 68  1  0  0  0  0
 69 70  1  0  0  0  0
 69 71  1  0  0  0  0
 23 69  1  0  0  0  0
 72 73  1  0  0  0  0
 72 74  1  0  0  0  0
 69 72  1  0  0  0  0
 64 72  1  0  0  0  0
  1 13  1  0  0  0  0
M  END
>  <DFT-ENERGY>
-2122.94953793

$$$$
