
  CDK     08132415323D

 74 78  0  0  0  0  0  0  0  0999 V2000
    0.9171    0.9273   -2.7412 H   0  0  0  0  0  0  0  0  0  0  0  0
    2.0724    1.2040   -3.0615 C   0  0  0  0  0  0  0  0  0  0  0  0
    1.7850    1.1290   -4.1325 H   0  0  0  0  0  0  0  0  0  0  0  0
    2.2725    2.4992   -2.3497 C   0  0  0  0  0  0  0  0  0  0  0  0
    3.2990    2.7453   -2.0316 H   0  0  0  0  0  0  0  0  0  0  0  0
    1.6656    3.3512   -2.7001 H   0  0  0  0  0  0  0  0  0  0  0  0
    1.3477    1.1786   -1.0389 Ru  0  0  0  0  0  0  0  0  0  0  0  0
    2.7158    0.1029   -2.3309 C   0  0  0  0  0  0  0  0  0  0  0  0
    3.7375    0.2402   -1.9561 H   0  0  0  0  0  0  0  0  0  0  0  0
    2.4317   -0.9255   -2.6049 H   0  0  0  0  0  0  0  0  0  0  0  0
    3.3705    1.2319    0.2859 Cl  0  0  0  0  0  0  0  0  0  0  0  0
   -0.7634    2.2357   -1.5785 Cl  0  0  0  0  0  0  0  0  0  0  0  0
    0.5423    1.6579    0.7950 C   0  0  0  0  0  0  0  0  0  0  0  0
   -0.9420    3.2576    2.1067 C   0  0  0  0  0  0  0  0  0  0  0  0
   -1.1919    0.7357    2.3656 C   0  0  0  0  0  0  0  0  0  0  0  0
   -1.8749    2.0571    1.9705 C   0  0  0  0  0  0  0  0  0  0  0  0
   -0.0453    0.5995    1.3608 N   0  0  0  0  0  0  0  0  0  0  0  0
    0.4599    3.0277    1.4539 C   0  0  0  0  0  0  0  0  0  0  0  0
   -0.8205    3.5240    3.1759 H   0  0  0  0  0  0  0  0  0  0  0  0
   -2.2100    1.9650    0.9166 H   0  0  0  0  0  0  0  0  0  0  0  0
   -1.4220    4.1321    1.6254 H   0  0  0  0  0  0  0  0  0  0  0  0
   -2.7773    2.1924    2.6009 H   0  0  0  0  0  0  0  0  0  0  0  0
    1.6124    3.0251    2.5287 C   0  0  0  0  0  0  0  0  0  0  0  0
    0.8117    4.1691    0.4649 C   0  0  0  0  0  0  0  0  0  0  0  0
   -2.1629   -0.4307    2.1947 C   0  0  0  0  0  0  0  0  0  0  0  0
   -2.6898   -0.3866    1.2277 H   0  0  0  0  0  0  0  0  0  0  0  0
   -2.9219   -0.3791    2.9990 H   0  0  0  0  0  0  0  0  0  0  0  0
   -1.6452   -1.4061    2.2788 H   0  0  0  0  0  0  0  0  0  0  0  0
   -0.7545    0.7646    3.8414 C   0  0  0  0  0  0  0  0  0  0  0  0
   -1.6453    1.0168    4.4512 H   0  0  0  0  0  0  0  0  0  0  0  0
    0.0167    1.5211    4.0588 H   0  0  0  0  0  0  0  0  0  0  0  0
   -0.3891   -0.2188    4.1821 H   0  0  0  0  0  0  0  0  0  0  0  0
    0.4420   -0.6717    0.7732 C   0  0  0  0  0  0  0  0  0  0  0  0
    1.7713   -2.8263   -0.4614 C   0  0  0  0  0  0  0  0  0  0  0  0
    1.5389   -1.3072    1.4355 C   0  0  0  0  0  0  0  0  0  0  0  0
   -0.0623   -1.1782   -0.4772 C   0  0  0  0  0  0  0  0  0  0  0  0
    0.6567   -2.2533   -1.0627 C   0  0  0  0  0  0  0  0  0  0  0  0
    2.1862   -2.3723    0.7960 C   0  0  0  0  0  0  0  0  0  0  0  0
    0.2911   -2.6606   -2.0154 H   0  0  0  0  0  0  0  0  0  0  0  0
    3.0404   -2.8503    1.2939 H   0  0  0  0  0  0  0  0  0  0  0  0
    2.3044   -3.6509   -0.9566 H   0  0  0  0  0  0  0  0  0  0  0  0
   -1.4566   -0.9279   -1.0610 C   0  0  0  0  0  0  0  0  0  0  0  0
   -1.8474    0.0183   -0.6406 H   0  0  0  0  0  0  0  0  0  0  0  0
    1.9758   -0.9499    2.8502 C   0  0  0  0  0  0  0  0  0  0  0  0
    1.5621    0.0465    3.0891 H   0  0  0  0  0  0  0  0  0  0  0  0
    1.3790   -1.9872    3.8246 C   0  0  0  0  0  0  0  0  0  0  0  0
    1.8415   -2.9814    3.6549 H   0  0  0  0  0  0  0  0  0  0  0  0
    0.2855   -2.1131    3.6921 H   0  0  0  0  0  0  0  0  0  0  0  0
    1.5729   -1.6982    4.8782 H   0  0  0  0  0  0  0  0  0  0  0  0
    3.4965   -0.8706    3.0479 C   0  0  0  0  0  0  0  0  0  0  0  0
    3.9800   -1.8623    2.9307 H   0  0  0  0  0  0  0  0  0  0  0  0
    3.7189   -0.5232    4.0774 H   0  0  0  0  0  0  0  0  0  0  0  0
    3.9504   -0.1688    2.3251 H   0  0  0  0  0  0  0  0  0  0  0  0
   -2.3774   -2.1096   -0.6719 C   0  0  0  0  0  0  0  0  0  0  0  0
   -2.3319   -2.3600    0.4029 H   0  0  0  0  0  0  0  0  0  0  0  0
   -2.0840   -3.0213   -1.2313 H   0  0  0  0  0  0  0  0  0  0  0  0
   -3.4312   -1.8803   -0.9326 H   0  0  0  0  0  0  0  0  0  0  0  0
   -1.4954   -0.8013   -2.5924 C   0  0  0  0  0  0  0  0  0  0  0  0
   -0.8490    0.0162   -2.9556 H   0  0  0  0  0  0  0  0  0  0  0  0
   -2.5301   -0.5741   -2.9173 H   0  0  0  0  0  0  0  0  0  0  0  0
   -1.1996   -1.7467   -3.0914 H   0  0  0  0  0  0  0  0  0  0  0  0
    1.7549    3.8880   -0.0477 H   0  0  0  0  0  0  0  0  0  0  0  0
    0.0345    4.2203   -0.3186 H   0  0  0  0  0  0  0  0  0  0  0  0
    0.9789    5.5290    1.1519 C   0  0  0  0  0  0  0  0  0  0  0  0
    0.0162    5.8488    1.6118 H   0  0  0  0  0  0  0  0  0  0  0  0
    1.2157    6.2930    0.3827 H   0  0  0  0  0  0  0  0  0  0  0  0
    1.4523    2.2210    3.2710 H   0  0  0  0  0  0  0  0  0  0  0  0
    2.5499    2.7654    2.0002 H   0  0  0  0  0  0  0  0  0  0  0  0
    1.7730    4.3766    3.2332 C   0  0  0  0  0  0  0  0  0  0  0  0
    2.5938    4.2893    3.9757 H   0  0  0  0  0  0  0  0  0  0  0  0
    0.8572    4.6299    3.8139 H   0  0  0  0  0  0  0  0  0  0  0  0
    2.0664    5.4936    2.2285 C   0  0  0  0  0  0  0  0  0  0  0  0
    3.0506    5.2979    1.7474 H   0  0  0  0  0  0  0  0  0  0  0  0
    2.1481    6.4734    2.7437 H   0  0  0  0  0  0  0  0  0  0  0  0
  1  2  1  0  0  0  0
  1  7  1  0  0  0  0
  2  3  1  0  0  0  0
  2  4  1  0  0  0  0
  4  5  1  0  0  0  0
  4  6  1  0  0  0  0
  7  8  1  0  0  0  0
  4  7  1  0  0  0  0
  2  8  1  0  0  0  0
  8  9  1  0  0  0  0
  8 10  1  0  0  0  0
  7 11  1  0  0  0  0
  7 12  1  0  0  0  0
 13 17  1  0  0  0  0
 13 18  1  0  0  0  0
 14 19  1  0  0  0  0
 14 21  1  0  0  0  0
 14 16  1  0  0  0  0
 14 18  1  0  0  0  0
 15 17  1  0  0  0  0
 15 16  1  0  0  0  0
 16 20  1  0  0  0  0
 16 22  1  0  0  0  0
 18 23  1  0  0  0  0
 18 24  1  0  0  0  0
 25 26  1  0  0  0  0
 25 27  1  0  0  0  0
 25 28  1  0  0  0  0
 15 25  1  0  0  0  0
 29 30  1  0  0  0  0
 29 31  1  0  0  0  0
 29 32  1  0  0  0  0
 15 29  1  0  0  0  0
 33 36  2  0  0  0  0
 36 37  1  0  0  0  0
 34 37  2  0  0  0  0
 34 38  1  0  0  0  0
 35 38  2  0  0  0  0
 33 35  1  0  0  0  0
 37 39  1  0  0  0  0
 38 40  1  0  0  0  0
 34 41  1  0  0  0  0
 17 33  1  0  0  0  0
 42 43  1  0  0  0  0
 36 42  1  0  0  0  0
 44 45  1  0  0  0  0
 35 44  1  0  0  0  0
 46 47  1  0  0  0  0
 46 48  1  0  0  0  0
 46 49  1  0  0  0  0
 44 46  1  0  0  0  0
 50 51  1  0  0  0  0
 50 52  1  0  0  0  0
 50 53  1  0  0  0  0
 44 50  1  0  0  0  0
 54 55  1  0  0  0  0
 54 56  1  0  0  0  0
 54 57  1  0  0  0  0
 42 54  1  0  0  0  0
 58 59  1  0  0  0  0
 58 60  1  0  0  0  0
 58 61  1  0  0  0  0
 42 58  1  0  0  0  0
 24 62  1  0  0  0  0
 24 63  1  0  0  0  0
 64 65  1  0  0  0  0
 64 66  1  0  0  0  0
 24 64  1  0  0  0  0
 23 67  1  0  0  0  0
 23 68  1  0  0  0  0
 69 70  1  0  0  0  0
 69 71  1  0  0  0  0
 23 69  1  0  0  0  0
 72 73  1  0  0  0  0
 72 74  1  0  0  0  0
 69 72  1  0  0  0  0
 64 72  1  0  0  0  0
  7 13  1  0  0  0  0
M  END
>  <DFT-ENERGY>
-2122.89907854

$$$$
