CAACCyDIPP-2_A2
  CDK     08122414223D

 88 92  0  0  0  0  0  0  0  0999 V2000
    0.7662   -0.5684   -1.2689 Ru  0  0  0  0  0  0  0  0  0  0  0  0
    2.5440   -0.5684   -2.6581 O   0  0  0  0  0  0  0  0  0  0  0  0
    1.9764    0.3648   -0.2648 C   0  0  0  0  0  0  0  0  0  0  0  0
    1.7436    0.6578    0.7579 H   0  0  0  0  0  0  0  0  0  0  0  0
    2.7795   -1.3436   -3.8839 C   0  0  0  0  0  0  0  0  0  0  0  0
    3.2099   -0.6482   -4.6363 H   0  0  0  0  0  0  0  0  0  0  0  0
    1.3611   -1.7673   -4.2334 C   0  0  0  0  0  0  0  0  0  0  0  0
    1.3085   -2.2509   -5.2124 H   0  0  0  0  0  0  0  0  0  0  0  0
    0.9599   -2.4727   -3.4786 H   0  0  0  0  0  0  0  0  0  0  0  0
    0.6872   -0.8867   -4.2436 H   0  0  0  0  0  0  0  0  0  0  0  0
    3.7005   -2.5026   -3.5455 C   0  0  0  0  0  0  0  0  0  0  0  0
    3.3639   -2.9926   -2.6106 H   0  0  0  0  0  0  0  0  0  0  0  0
    3.7013   -3.2671   -4.3288 H   0  0  0  0  0  0  0  0  0  0  0  0
    4.7345   -2.1842   -3.3762 H   0  0  0  0  0  0  0  0  0  0  0  0
    3.5362    0.2300   -2.1531 C   0  0  0  0  0  0  0  0  0  0  0  0
    4.7053    0.5788   -2.8061 C   0  0  0  0  0  0  0  0  0  0  0  0
    4.9246    0.2267   -3.8115 H   0  0  0  0  0  0  0  0  0  0  0  0
    5.6065    1.4097   -2.1486 C   0  0  0  0  0  0  0  0  0  0  0  0
    6.5296    1.6965   -2.6570 H   0  0  0  0  0  0  0  0  0  0  0  0
    5.3565    1.8814   -0.8633 C   0  0  0  0  0  0  0  0  0  0  0  0
    6.0821    2.5248   -0.3687 H   0  0  0  0  0  0  0  0  0  0  0  0
    4.1868    1.5210   -0.2217 C   0  0  0  0  0  0  0  0  0  0  0  0
    3.9936    1.8757    0.7896 H   0  0  0  0  0  0  0  0  0  0  0  0
    3.2513    0.7056   -0.8611 C   0  0  0  0  0  0  0  0  0  0  0  0
    1.3651   -2.7578   -0.7093 Cl  0  0  0  0  0  0  0  0  0  0  0  0
   -0.0645    1.1531   -2.6406 Cl  0  0  0  0  0  0  0  0  0  0  0  0
   -0.9540   -0.3610   -0.3057 C   0  0  0  0  0  0  0  0  0  0  0  0
   -3.4265   -0.7281   -0.8748 C   0  0  0  0  0  0  0  0  0  0  0  0
   -2.8276    0.9995    0.8400 C   0  0  0  0  0  0  0  0  0  0  0  0
   -3.7802   -0.1637    0.4942 C   0  0  0  0  0  0  0  0  0  0  0  0
   -1.3700    0.5570    0.6121 N   0  0  0  0  0  0  0  0  0  0  0  0
   -2.0153   -1.3606   -0.8404 C   0  0  0  0  0  0  0  0  0  0  0  0
   -3.4632    0.0597   -1.6527 H   0  0  0  0  0  0  0  0  0  0  0  0
   -3.7277   -0.9576    1.2662 H   0  0  0  0  0  0  0  0  0  0  0  0
   -4.1780   -1.4830   -1.1813 H   0  0  0  0  0  0  0  0  0  0  0  0
   -4.8279    0.1912    0.5126 H   0  0  0  0  0  0  0  0  0  0  0  0
   -1.6850   -1.8780   -2.2676 C   0  0  0  0  0  0  0  0  0  0  0  0
   -1.9905   -2.5818    0.1249 C   0  0  0  0  0  0  0  0  0  0  0  0
   -3.0631    1.3997    2.3053 C   0  0  0  0  0  0  0  0  0  0  0  0
   -2.8382    0.5849    3.0038 H   0  0  0  0  0  0  0  0  0  0  0  0
   -4.1101    1.6856    2.4601 H   0  0  0  0  0  0  0  0  0  0  0  0
   -2.4528    2.2601    2.6100 H   0  0  0  0  0  0  0  0  0  0  0  0
   -3.1270    2.1958   -0.0796 C   0  0  0  0  0  0  0  0  0  0  0  0
   -4.1733    2.2147   -0.3989 H   0  0  0  0  0  0  0  0  0  0  0  0
   -2.5074    2.1782   -0.9943 H   0  0  0  0  0  0  0  0  0  0  0  0
   -2.9267    3.1580    0.4171 H   0  0  0  0  0  0  0  0  0  0  0  0
   -0.4259    1.2195    1.5203 C   0  0  0  0  0  0  0  0  0  0  0  0
    1.1982    2.4463    3.4564 C   0  0  0  0  0  0  0  0  0  0  0  0
    0.0662    2.5259    1.2945 C   0  0  0  0  0  0  0  0  0  0  0  0
   -0.0827    0.5189    2.7103 C   0  0  0  0  0  0  0  0  0  0  0  0
    0.7332    1.1462    3.6591 C   0  0  0  0  0  0  0  0  0  0  0  0
    0.8702    3.1205    2.2848 C   0  0  0  0  0  0  0  0  0  0  0  0
    1.0110    0.6116    4.5678 H   0  0  0  0  0  0  0  0  0  0  0  0
    1.2472    4.1314    2.1227 H   0  0  0  0  0  0  0  0  0  0  0  0
    1.8207    2.9266    4.2100 H   0  0  0  0  0  0  0  0  0  0  0  0
   -0.5276   -0.9119    2.9743 C   0  0  0  0  0  0  0  0  0  0  0  0
   -1.3760   -1.1881    2.2882 H   0  0  0  0  0  0  0  0  0  0  0  0
   -0.1887    3.3341    0.0332 C   0  0  0  0  0  0  0  0  0  0  0  0
   -0.8184    2.7297   -0.6793 H   0  0  0  0  0  0  0  0  0  0  0  0
   -0.9401    4.6309    0.3717 C   0  0  0  0  0  0  0  0  0  0  0  0
   -0.3677    5.2768    1.0447 H   0  0  0  0  0  0  0  0  0  0  0  0
   -1.9054    4.4148    0.8514 H   0  0  0  0  0  0  0  0  0  0  0  0
   -1.1429    5.2086   -0.5377 H   0  0  0  0  0  0  0  0  0  0  0  0
    1.1250    3.6424   -0.6950 C   0  0  0  0  0  0  0  0  0  0  0  0
    1.8501    4.1679   -0.0703 H   0  0  0  0  0  0  0  0  0  0  0  0
    0.9405    4.2536   -1.5868 H   0  0  0  0  0  0  0  0  0  0  0  0
    1.5919    2.7120   -1.0596 H   0  0  0  0  0  0  0  0  0  0  0  0
   -1.0357   -1.0995    4.4099 C   0  0  0  0  0  0  0  0  0  0  0  0
   -1.8084   -0.3658    4.6630 H   0  0  0  0  0  0  0  0  0  0  0  0
   -0.2313   -0.9972    5.1478 H   0  0  0  0  0  0  0  0  0  0  0  0
   -1.4631   -2.0997    4.5431 H   0  0  0  0  0  0  0  0  0  0  0  0
    0.6438   -1.8492    2.6630 C   0  0  0  0  0  0  0  0  0  0  0  0
    1.0114   -1.6901    1.6315 H   0  0  0  0  0  0  0  0  0  0  0  0
    0.3521   -2.9022    2.7351 H   0  0  0  0  0  0  0  0  0  0  0  0
    1.4934   -1.6943    3.3348 H   0  0  0  0  0  0  0  0  0  0  0  0
   -0.9585   -2.9968    0.1608 H   0  0  0  0  0  0  0  0  0  0  0  0
   -2.2159   -2.2533    1.1607 H   0  0  0  0  0  0  0  0  0  0  0  0
   -2.9642   -3.6858   -0.3085 C   0  0  0  0  0  0  0  0  0  0  0  0
   -4.0085   -3.3367   -0.1960 H   0  0  0  0  0  0  0  0  0  0  0  0
   -2.8567   -4.5545    0.3693 H   0  0  0  0  0  0  0  0  0  0  0  0
   -1.6487   -1.0316   -2.9849 H   0  0  0  0  0  0  0  0  0  0  0  0
   -0.6944   -2.4026   -2.3062 H   0  0  0  0  0  0  0  0  0  0  0  0
   -2.7061   -2.9376   -2.7258 C   0  0  0  0  0  0  0  0  0  0  0  0
   -2.4488   -3.2812   -3.7453 H   0  0  0  0  0  0  0  0  0  0  0  0
   -3.7183   -2.4973   -2.8009 H   0  0  0  0  0  0  0  0  0  0  0  0
   -2.7167   -4.1304   -1.7577 C   0  0  0  0  0  0  0  0  0  0  0  0
   -1.7454   -4.6623   -1.8166 H   0  0  0  0  0  0  0  0  0  0  0  0
   -3.4866   -4.8612   -2.0651 H   0  0  0  0  0  0  0  0  0  0  0  0
  2  1  1  0  0  0  0
  3  1  2  0  0  0  0
  4  3  1  0  0  0  0
  5  2  1  0  0  0  0
  6  5  1  0  0  0  0
  7  5  1  0  0  0  0
  8  7  1  0  0  0  0
  9  7  1  0  0  0  0
 10  7  1  0  0  0  0
 11  5  1  0  0  0  0
 12 11  1  0  0  0  0
 13 11  1  0  0  0  0
 14 11  1  0  0  0  0
 15  2  1  0  0  0  0
 15 24  1  0  0  0  0
 16 15  2  0  0  0  0
 17 16  1  0  0  0  0
 18 16  1  0  0  0  0
 19 18  1  0  0  0  0
 20 18  2  0  0  0  0
 21 20  1  0  0  0  0
 22 20  1  0  0  0  0
 22 24  2  0  0  0  0
 23 22  1  0  0  0  0
 24  3  1  0  0  0  0
  1 25  1  0  0  0  0
  1 26  1  0  0  0  0
 27 31  1  0  0  0  0
 27 32  1  0  0  0  0
 28 33  1  0  0  0  0
 28 35  1  0  0  0  0
 28 30  1  0  0  0  0
 28 32  1  0  0  0  0
 29 31  1  0  0  0  0
 29 30  1  0  0  0  0
 30 34  1  0  0  0  0
 30 36  1  0  0  0  0
 32 37  1  0  0  0  0
 32 38  1  0  0  0  0
 39 40  1  0  0  0  0
 39 41  1  0  0  0  0
 39 42  1  0  0  0  0
 29 39  1  0  0  0  0
 43 44  1  0  0  0  0
 43 45  1  0  0  0  0
 43 46  1  0  0  0  0
 29 43  1  0  0  0  0
 47 50  2  0  0  0  0
 50 51  1  0  0  0  0
 48 51  2  0  0  0  0
 48 52  1  0  0  0  0
 49 52  2  0  0  0  0
 47 49  1  0  0  0  0
 51 53  1  0  0  0  0
 52 54  1  0  0  0  0
 48 55  1  0  0  0  0
 31 47  1  0  0  0  0
 56 57  1  0  0  0  0
 50 56  1  0  0  0  0
 58 59  1  0  0  0  0
 49 58  1  0  0  0  0
 60 61  1  0  0  0  0
 60 62  1  0  0  0  0
 60 63  1  0  0  0  0
 58 60  1  0  0  0  0
 64 65  1  0  0  0  0
 64 66  1  0  0  0  0
 64 67  1  0  0  0  0
 58 64  1  0  0  0  0
 68 69  1  0  0  0  0
 68 70  1  0  0  0  0
 68 71  1  0  0  0  0
 56 68  1  0  0  0  0
 72 73  1  0  0  0  0
 72 74  1  0  0  0  0
 72 75  1  0  0  0  0
 56 72  1  0  0  0  0
 38 76  1  0  0  0  0
 38 77  1  0  0  0  0
 78 79  1  0  0  0  0
 78 80  1  0  0  0  0
 38 78  1  0  0  0  0
 37 81  1  0  0  0  0
 37 82  1  0  0  0  0
 83 84  1  0  0  0  0
 83 85  1  0  0  0  0
 37 83  1  0  0  0  0
 86 87  1  0  0  0  0
 86 88  1  0  0  0  0
 83 86  1  0  0  0  0
 78 86  1  0  0  0  0
  1 27  1  0  0  0  0
M  END
> <FrozenCore-PM6_ENERGY>
-168.526

> <RMSD_CONF_CG-CS>
0.893641

> <RMSD_CONF_GO-CS>
0.000000

> <UID>


> <DESCRIPTOR_DEFINITION_1>
desc1=( echo "1 * ( e( $hartree_to_kcalmol * ( ( $freeEnergyZ - $freeEnergyD ) - ( $freeEnergyX + 2*$G_Ethene - $freeEnergyD - 2*$G_Propene ) - $DDG_reference_HGII ) / $kT ) ) " | bc -l )

> <DESCRIPTOR_DEFINITION_2>
desc1=( echo "1 * ( e( $hartree_to_kcalmol * ( ( $freeEnergyZ - $freeEnergyD ) - ( $freeEnergyX + 2*$G_Ethene - $freeEnergyD - 2*$G_Propene ) - $DDG_reference_HGII ) / $kT ) ) " | bc -l )

> <DESCRIPTOR_DEFINITION_3>
desc1=( echo "1 * ( e( $hartree_to_kcalmol * ( ( $freeEnergyZ - $freeEnergyD ) - ( $freeEnergyX + 2*$G_Ethene - $freeEnergyD - 2*$G_Propene ) - $DDG_reference_HGII ) / $kT ) ) " | bc -l )

> <WEIGHT_DEFINITION_1>
w1=$( echo "1 / ( 1 + e( $hartree_to_kcalmol * ( ( ( $freeEnergyX + 2*$G_Ethene - $freeEnergyD - 2*$G_Propene ) ) - ( $DG_referenceProductionBarrier + $magnitude4 ) ) / $kT ) )" | bc -l )

> <WEIGHT_DEFINITION_2>
w1=$( echo "1 / ( 1 + e( $hartree_to_kcalmol * ( ( ( $freeEnergyX + 2*$G_Ethene - $freeEnergyD - 2*$G_Propene ) ) - ( $DG_referenceProductionBarrier + $magnitude4 ) ) / $kT ) )" | bc -l )

> <WEIGHT_DEFINITION_3>
w1=$( echo "1 / ( 1 + e( $hartree_to_kcalmol * ( ( ( $freeEnergyX + 2*$G_Ethene - $freeEnergyD - 2*$G_Propene ) ) - ( $DG_referenceProductionBarrier + $magnitude4 ) ) / $kT ) )" | bc -l )

> <WEIGHT_DEFINITION_4>
w1=$( echo "1 / ( 1 + e( $hartree_to_kcalmol * ( ( ( $freeEnergyX + 2*$G_Ethene - $freeEnergyD - 2*$G_Propene ) ) - ( $DG_referenceProductionBarrier + $magnitude4 ) ) / $kT ) )" | bc -l )

> <CALCULATION_OF_OVERALL_FITNESS>
fitness=$( echo "( $desc1 + $desc2 + $desc3 ) * ( $w1 * $w2 * $w3 * $w4 )" | bc -l )

> <freeEnergyA>
-2468.18472467

> <freeEnergyF>
-2468.16125548

> <freeEnergyE>
-2468.18472467

> <freeEnergyC>
-2122.925822

> <freeEnergyL>
-990.316555184

> <freeEnergyX>
-2201.44837516

> <freeEnergyZ>
-2122.89907752

> <freeEnergyD>
-2122.94953782

> <G_Propene>
-117.738020895

> <G_Ethene>
-78.4716324751

> <G_HoveydaProd>
-502.204109499

> <G_SIMes>
-924.27249048

> <G_HG_RuCl2_SIMes>
-2402.13728523

> <DG_referenceProductionBarrier>
0.01468968

> <DG_referencePrecursorStabilityHII>
-0.0052201621

> <DG_referencePrecursorStabilityHI>
0.0117775312

> <DDG_referencePrecursorStability>
.0169976933

> <DG_referenceSynt>
0.0226072217

> <hartree_to_kcalmol>
627.49467516

> <boltzmann_constant>
0.0000000000000000000000138066

> <avogadro_number>
602214000000000000000000

> <jmol_to_kcalmol>
0.00023901

> <temp>
313.15

> <kT>
.6223089948281258706000000000

> <magnitude1>
1.43290809

> <magnitude2>
2.86581618

> <magnitude3>
4.29872427

> <magnitude4>
5.73163236

> <DFT_IDENTIFIER>
1723660563456

> <DFT_MACHINE>
158.39.114.73

> <XTB_IDENTIFIER>
NREC

> <XTB_MACHINE>
NREC

> <DESCRIPTOR_1>
.00315717593783997897

> <DESCRIPTOR_2>
10.366714154882263032

> <DESCRIPTOR_3>
0.0000000001

> <WEIGHT_1>
.07208881620448520338

> <WEIGHT_2>
.99999990180400282430

> <WEIGHT_3>
.99999999999958105204

> <WEIGHT_4>
.99999999472150174690

> <FITNESS>
.74755167108600689030

$$$$
