
  CDK     08132417193D

 53 56  0  0  0  0  0  0  0  0999 V2000
    1.2844   -1.1638    0.0646 Ru  0  0  0  0  0  0  0  0  0  0  0  0
    2.3916   -1.3919   -1.5262 C   0  0  0  0  0  0  0  0  0  0  0  0
    1.9591   -2.0109   -2.3333 H   0  0  0  0  0  0  0  0  0  0  0  0
    3.1833   -2.2395   -0.4477 C   0  0  0  0  0  0  0  0  0  0  0  0
    3.2303   -3.2676   -0.8510 H   0  0  0  0  0  0  0  0  0  0  0  0
    2.5263   -2.3702    0.9845 C   0  0  0  0  0  0  0  0  0  0  0  0
    3.1351   -1.9012    1.7788 H   0  0  0  0  0  0  0  0  0  0  0  0
    2.1471   -3.3863    1.1951 H   0  0  0  0  0  0  0  0  0  0  0  0
    4.1657   -1.7527   -0.3110 H   0  0  0  0  0  0  0  0  0  0  0  0
    2.9330   -0.4829   -1.8464 H   0  0  0  0  0  0  0  0  0  0  0  0
    0.0101   -3.1077   -0.5398 Cl  0  0  0  0  0  0  0  0  0  0  0  0
    2.5972    0.6853    0.7932 Cl  0  0  0  0  0  0  0  0  0  0  0  0
   -0.4428   -0.2312    0.4577 C   0  0  0  0  0  0  0  0  0  0  0  0
   -1.0426    0.7267   -0.3092 N   0  0  0  0  0  0  0  0  0  0  0  0
   -2.2458    1.1275    0.2736 C   0  0  0  0  0  0  0  0  0  0  0  0
   -2.3830    0.4054    1.4298 C   0  0  0  0  0  0  0  0  0  0  0  0
   -1.2731   -0.4353    1.5189 N   0  0  0  0  0  0  0  0  0  0  0  0
   -0.4727    1.2182   -1.5394 C   0  0  0  0  0  0  0  0  0  0  0  0
    0.7368    2.1136   -3.8976 C   0  0  0  0  0  0  0  0  0  0  0  0
   -0.6685    0.4727   -2.7212 C   0  0  0  0  0  0  0  0  0  0  0  0
    0.2633    2.4234   -1.5055 C   0  0  0  0  0  0  0  0  0  0  0  0
    0.8615    2.8468   -2.7025 C   0  0  0  0  0  0  0  0  0  0  0  0
   -0.0405    0.9434   -3.8894 C   0  0  0  0  0  0  0  0  0  0  0  0
    1.4483    3.7783   -2.6961 H   0  0  0  0  0  0  0  0  0  0  0  0
   -0.1754    0.3766   -4.8236 H   0  0  0  0  0  0  0  0  0  0  0  0
    0.4162    3.2078   -0.2315 C   0  0  0  0  0  0  0  0  0  0  0  0
    1.0011    2.6165    0.5050 H   0  0  0  0  0  0  0  0  0  0  0  0
   -0.5647    3.4454    0.2282 H   0  0  0  0  0  0  0  0  0  0  0  0
    0.9508    4.1576   -0.4180 H   0  0  0  0  0  0  0  0  0  0  0  0
   -1.5245   -0.7641   -2.7419 C   0  0  0  0  0  0  0  0  0  0  0  0
   -1.7148   -1.0883   -3.7820 H   0  0  0  0  0  0  0  0  0  0  0  0
   -2.5023   -0.5875   -2.2491 H   0  0  0  0  0  0  0  0  0  0  0  0
   -1.0460   -1.6063   -2.1948 H   0  0  0  0  0  0  0  0  0  0  0  0
    1.4286    2.5786   -5.1544 C   0  0  0  0  0  0  0  0  0  0  0  0
    2.5221    2.3940   -5.0940 H   0  0  0  0  0  0  0  0  0  0  0  0
    1.2948    3.6677   -5.3122 H   0  0  0  0  0  0  0  0  0  0  0  0
    1.0495    2.0496   -6.0495 H   0  0  0  0  0  0  0  0  0  0  0  0
   -3.1711    0.4172    2.1834 H   0  0  0  0  0  0  0  0  0  0  0  0
   -2.8860    1.8778   -0.1940 H   0  0  0  0  0  0  0  0  0  0  0  0
   -0.9268   -1.3953    2.5914 C   0  0  0  0  0  0  0  0  0  0  0  0
    0.1455   -0.7904    3.5172 C   0  0  0  0  0  0  0  0  0  0  0  0
   -0.6630    0.1568    4.4194 C   0  0  0  0  0  0  0  0  0  0  0  0
   -2.0144   -0.5704    4.6528 C   0  0  0  0  0  0  0  0  0  0  0  0
   -2.1045   -1.6583    3.5426 C   0  0  0  0  0  0  0  0  0  0  0  0
   -0.5878   -2.3069    2.0595 H   0  0  0  0  0  0  0  0  0  0  0  0
    0.9637   -0.2930    2.9580 H   0  0  0  0  0  0  0  0  0  0  0  0
    0.5905   -1.6193    4.1075 H   0  0  0  0  0  0  0  0  0  0  0  0
   -0.1363    0.4023    5.3612 H   0  0  0  0  0  0  0  0  0  0  0  0
   -0.8286    1.1160    3.8858 H   0  0  0  0  0  0  0  0  0  0  0  0
   -2.8672    0.1373    4.6153 H   0  0  0  0  0  0  0  0  0  0  0  0
   -2.0489   -1.0425    5.6545 H   0  0  0  0  0  0  0  0  0  0  0  0
   -3.0775   -1.6936    3.0154 H   0  0  0  0  0  0  0  0  0  0  0  0
   -1.9540   -2.6661    3.9754 H   0  0  0  0  0  0  0  0  0  0  0  0
  2  4  1  0  0  0  0
  2  1  1  0  0  0  0
  2  3  1  0  0  0  0
  4  6  1  0  0  0  0
  4  5  1  0  0  0  0
  6  1  1  0  0  0  0
  6  8  1  0  0  0  0
  7  6  1  0  0  0  0
  9  4  1  0  0  0  0
 10  2  1  0  0  0  0
  1 11  1  0  0  0  0
  1 12  1  0  0  0  0
 13 14  1  0  0  0  0
 13 17  1  0  0  0  0
 14 15  1  0  0  0  0
 15 16  2  0  0  0  0
 16 17  1  0  0  0  0
 18 21  2  0  0  0  0
 21 22  1  0  0  0  0
 19 22  2  0  0  0  0
 19 23  1  0  0  0  0
 20 23  2  0  0  0  0
 18 20  1  0  0  0  0
 22 24  1  0  0  0  0
 23 25  1  0  0  0  0
 14 18  1  0  0  0  0
 26 27  1  0  0  0  0
 26 28  1  0  0  0  0
 26 29  1  0  0  0  0
 21 26  1  0  0  0  0
 30 31  1  0  0  0  0
 30 32  1  0  0  0  0
 30 33  1  0  0  0  0
 20 30  1  0  0  0  0
 34 35  1  0  0  0  0
 34 36  1  0  0  0  0
 34 37  1  0  0  0  0
 19 34  1  0  0  0  0
 16 38  1  0  0  0  0
 15 39  1  0  0  0  0
 40 45  1  0  0  0  0
 40 41  1  0  0  0  0
 40 44  1  0  0  0  0
 41 46  1  0  0  0  0
 41 47  1  0  0  0  0
 41 42  1  0  0  0  0
 42 48  1  0  0  0  0
 42 49  1  0  0  0  0
 42 43  1  0  0  0  0
 43 50  1  0  0  0  0
 43 51  1  0  0  0  0
 43 44  1  0  0  0  0
 44 52  1  0  0  0  0
 44 53  1  0  0  0  0
 17 40  1  0  0  0  0
  1 13  1  0  0  0  0
M  END
>  <DFT-ENERGY>
-1902.23688226

$$$$
