CpMes-4_A2
  CDK     08122411563D

 67 71  0  0  0  0  0  0  0  0999 V2000
    0.5626    0.1386   -0.4846 Ru  0  0  0  0  0  0  0  0  0  0  0  0
    2.3404    0.1386   -1.8738 O   0  0  0  0  0  0  0  0  0  0  0  0
    1.7728    1.0719    0.5195 C   0  0  0  0  0  0  0  0  0  0  0  0
    1.5400    1.3648    1.5422 H   0  0  0  0  0  0  0  0  0  0  0  0
    2.5759   -0.6366   -3.0996 C   0  0  0  0  0  0  0  0  0  0  0  0
    3.0216    0.0541   -3.8474 H   0  0  0  0  0  0  0  0  0  0  0  0
    1.1512   -1.0340   -3.4574 C   0  0  0  0  0  0  0  0  0  0  0  0
    1.0989   -1.5421   -4.4238 H   0  0  0  0  0  0  0  0  0  0  0  0
    0.7143   -1.7107   -2.6886 H   0  0  0  0  0  0  0  0  0  0  0  0
    0.5002   -0.1375   -3.4979 H   0  0  0  0  0  0  0  0  0  0  0  0
    3.4772   -1.8072   -2.7529 C   0  0  0  0  0  0  0  0  0  0  0  0
    3.4686   -2.5765   -3.5312 H   0  0  0  0  0  0  0  0  0  0  0  0
    4.5155   -1.5036   -2.5820 H   0  0  0  0  0  0  0  0  0  0  0  0
    3.1314   -2.2867   -1.8152 H   0  0  0  0  0  0  0  0  0  0  0  0
    3.3326    0.9370   -1.3688 C   0  0  0  0  0  0  0  0  0  0  0  0
    4.5017    1.2859   -2.0218 C   0  0  0  0  0  0  0  0  0  0  0  0
    4.7208    0.9344   -3.0275 H   0  0  0  0  0  0  0  0  0  0  0  0
    5.4029    2.1169   -1.3643 C   0  0  0  0  0  0  0  0  0  0  0  0
    6.3256    2.4044   -1.8732 H   0  0  0  0  0  0  0  0  0  0  0  0
    5.1529    2.5884   -0.0790 C   0  0  0  0  0  0  0  0  0  0  0  0
    5.8778    3.2331    0.4153 H   0  0  0  0  0  0  0  0  0  0  0  0
    3.9832    2.2281    0.5626 C   0  0  0  0  0  0  0  0  0  0  0  0
    3.7900    2.5827    1.5739 H   0  0  0  0  0  0  0  0  0  0  0  0
    3.0477    1.4127   -0.0768 C   0  0  0  0  0  0  0  0  0  0  0  0
    1.1619   -2.0523    0.0754 Cl  0  0  0  0  0  0  0  0  0  0  0  0
   -0.2514    1.8256   -1.8287 Cl  0  0  0  0  0  0  0  0  0  0  0  0
   -1.0254    0.1130    0.6722 C   0  0  0  0  0  0  0  0  0  0  0  0
   -1.3262    0.4790    1.9876 N   0  0  0  0  0  0  0  0  0  0  0  0
   -2.6665    0.1149    2.3185 C   0  0  0  0  0  0  0  0  0  0  0  0
   -3.2187   -0.4658    1.2030 C   0  0  0  0  0  0  0  0  0  0  0  0
   -2.2288   -0.4534    0.1852 N   0  0  0  0  0  0  0  0  0  0  0  0
   -0.4815    1.1433    2.9489 C   0  0  0  0  0  0  0  0  0  0  0  0
    0.9829    2.4552    4.9350 C   0  0  0  0  0  0  0  0  0  0  0  0
   -0.3943    2.5573    2.9283 C   0  0  0  0  0  0  0  0  0  0  0  0
    0.2224    0.3806    3.9085 C   0  0  0  0  0  0  0  0  0  0  0  0
    0.9401    1.0548    4.9053 C   0  0  0  0  0  0  0  0  0  0  0  0
    0.3312    3.1982    3.9370 C   0  0  0  0  0  0  0  0  0  0  0  0
    1.4738    0.4801    5.6596 H   0  0  0  0  0  0  0  0  0  0  0  0
    0.3943    4.2844    3.9461 H   0  0  0  0  0  0  0  0  0  0  0  0
    0.2252   -1.1071    3.8337 C   0  0  0  0  0  0  0  0  0  0  0  0
    0.5758   -1.4491    2.8357 H   0  0  0  0  0  0  0  0  0  0  0  0
   -0.7809   -1.5290    3.9686 H   0  0  0  0  0  0  0  0  0  0  0  0
    0.8822   -1.5765    4.5760 H   0  0  0  0  0  0  0  0  0  0  0  0
   -1.0306    3.3316    1.8253 C   0  0  0  0  0  0  0  0  0  0  0  0
   -0.7961    4.4028    1.8573 H   0  0  0  0  0  0  0  0  0  0  0  0
   -2.1260    3.2345    1.8339 H   0  0  0  0  0  0  0  0  0  0  0  0
   -0.6921    2.9607    0.8323 H   0  0  0  0  0  0  0  0  0  0  0  0
    1.7295    3.1687    6.0139 C   0  0  0  0  0  0  0  0  0  0  0  0
    2.2235    2.4854    6.7172 H   0  0  0  0  0  0  0  0  0  0  0  0
    1.0572    3.8085    6.6049 H   0  0  0  0  0  0  0  0  0  0  0  0
    2.5108    3.8210    5.5967 H   0  0  0  0  0  0  0  0  0  0  0  0
   -4.2022   -0.8742    1.0504 H   0  0  0  0  0  0  0  0  0  0  0  0
   -3.0860    0.3044    3.2889 H   0  0  0  0  0  0  0  0  0  0  0  0
   -2.3952   -0.9559   -1.2083 C   0  0  0  0  0  0  0  0  0  0  0  0
   -1.6738   -2.3120   -1.4066 C   0  0  0  0  0  0  0  0  0  0  0  0
   -2.6115   -3.1999   -2.2406 C   0  0  0  0  0  0  0  0  0  0  0  0
   -3.8374   -2.3446   -2.6134 C   0  0  0  0  0  0  0  0  0  0  0  0
   -3.8687   -1.1729   -1.6188 C   0  0  0  0  0  0  0  0  0  0  0  0
   -1.9360   -0.1751   -1.8886 H   0  0  0  0  0  0  0  0  0  0  0  0
   -1.4241   -2.7896   -0.4381 H   0  0  0  0  0  0  0  0  0  0  0  0
   -0.6912   -2.1585   -1.9122 H   0  0  0  0  0  0  0  0  0  0  0  0
   -2.1045   -3.5833   -3.1416 H   0  0  0  0  0  0  0  0  0  0  0  0
   -2.9178   -4.0879   -1.6596 H   0  0  0  0  0  0  0  0  0  0  0  0
   -4.7690   -2.9320   -2.5736 H   0  0  0  0  0  0  0  0  0  0  0  0
   -3.7495   -1.9711   -3.6496 H   0  0  0  0  0  0  0  0  0  0  0  0
   -4.5064   -1.4269   -0.7524 H   0  0  0  0  0  0  0  0  0  0  0  0
   -4.2991   -0.2609   -2.0649 H   0  0  0  0  0  0  0  0  0  0  0  0
  1  2  1  0  0  0  0
  1  3  2  0  0  0  0
  3  4  1  0  0  0  0
  2  5  1  0  0  0  0
  5  6  1  0  0  0  0
  5  7  1  0  0  0  0
  7  8  1  0  0  0  0
  7  9  1  0  0  0  0
  7 10  1  0  0  0  0
  5 11  1  0  0  0  0
 11 12  1  0  0  0  0
 11 13  1  0  0  0  0
 11 14  1  0  0  0  0
  2 15  1  0  0  0  0
 15 24  1  0  0  0  0
 15 16  2  0  0  0  0
 16 17  1  0  0  0  0
 16 18  1  0  0  0  0
 18 19  1  0  0  0  0
 18 20  2  0  0  0  0
 20 21  1  0  0  0  0
 20 22  1  0  0  0  0
 22 24  2  0  0  0  0
 22 23  1  0  0  0  0
  3 24  1  0  0  0  0
  1 25  1  0  0  0  0
  1 26  1  0  0  0  0
 27 28  1  0  0  0  0
 27 31  1  0  0  0  0
 28 29  1  0  0  0  0
 29 30  2  0  0  0  0
 30 31  1  0  0  0  0
 32 35  2  0  0  0  0
 35 36  1  0  0  0  0
 33 36  2  0  0  0  0
 33 37  1  0  0  0  0
 34 37  2  0  0  0  0
 32 34  1  0  0  0  0
 36 38  1  0  0  0  0
 37 39  1  0  0  0  0
 28 32  1  0  0  0  0
 40 41  1  0  0  0  0
 40 42  1  0  0  0  0
 40 43  1  0  0  0  0
 35 40  1  0  0  0  0
 44 45  1  0  0  0  0
 44 46  1  0  0  0  0
 44 47  1  0  0  0  0
 34 44  1  0  0  0  0
 48 49  1  0  0  0  0
 48 50  1  0  0  0  0
 48 51  1  0  0  0  0
 33 48  1  0  0  0  0
 30 52  1  0  0  0  0
 29 53  1  0  0  0  0
 54 59  1  0  0  0  0
 54 55  1  0  0  0  0
 54 58  1  0  0  0  0
 55 60  1  0  0  0  0
 55 61  1  0  0  0  0
 55 56  1  0  0  0  0
 56 62  1  0  0  0  0
 56 63  1  0  0  0  0
 56 57  1  0  0  0  0
 57 64  1  0  0  0  0
 57 65  1  0  0  0  0
 57 58  1  0  0  0  0
 58 66  1  0  0  0  0
 58 67  1  0  0  0  0
 31 54  1  0  0  0  0
  1 27  1  0  0  0  0
M  END
> <FrozenCore-PM6_ENERGY>
-28.953

> <RMSD_CONF_CG-CS>
0.602314

> <RMSD_CONF_GO-CS>
0.000000

> <UID>


> <DESCRIPTOR_DEFINITION_1>
desc1=( echo "1 * ( e( $hartree_to_kcalmol * ( ( $freeEnergyZ - $freeEnergyD ) - ( $freeEnergyX + 2*$G_Ethene - $freeEnergyD - 2*$G_Propene ) - $DDG_reference_HGII ) / $kT ) ) " | bc -l )

> <DESCRIPTOR_DEFINITION_2>
desc1=( echo "1 * ( e( $hartree_to_kcalmol * ( ( $freeEnergyZ - $freeEnergyD ) - ( $freeEnergyX + 2*$G_Ethene - $freeEnergyD - 2*$G_Propene ) - $DDG_reference_HGII ) / $kT ) ) " | bc -l )

> <DESCRIPTOR_DEFINITION_3>
desc1=( echo "1 * ( e( $hartree_to_kcalmol * ( ( $freeEnergyZ - $freeEnergyD ) - ( $freeEnergyX + 2*$G_Ethene - $freeEnergyD - 2*$G_Propene ) - $DDG_reference_HGII ) / $kT ) ) " | bc -l )

> <WEIGHT_DEFINITION_1>
w1=$( echo "1 / ( 1 + e( $hartree_to_kcalmol * ( ( ( $freeEnergyX + 2*$G_Ethene - $freeEnergyD - 2*$G_Propene ) ) - ( $DG_referenceProductionBarrier + $magnitude4 ) ) / $kT ) )" | bc -l )

> <WEIGHT_DEFINITION_2>
w1=$( echo "1 / ( 1 + e( $hartree_to_kcalmol * ( ( ( $freeEnergyX + 2*$G_Ethene - $freeEnergyD - 2*$G_Propene ) ) - ( $DG_referenceProductionBarrier + $magnitude4 ) ) / $kT ) )" | bc -l )

> <WEIGHT_DEFINITION_3>
w1=$( echo "1 / ( 1 + e( $hartree_to_kcalmol * ( ( ( $freeEnergyX + 2*$G_Ethene - $freeEnergyD - 2*$G_Propene ) ) - ( $DG_referenceProductionBarrier + $magnitude4 ) ) / $kT ) )" | bc -l )

> <WEIGHT_DEFINITION_4>
w1=$( echo "1 / ( 1 + e( $hartree_to_kcalmol * ( ( ( $freeEnergyX + 2*$G_Ethene - $freeEnergyD - 2*$G_Propene ) ) - ( $DG_referenceProductionBarrier + $magnitude4 ) ) / $kT ) )" | bc -l )

> <CALCULATION_OF_OVERALL_FITNESS>
fitness=$( echo "( $desc1 + $desc2 + $desc3 ) * ( $w1 * $w2 * $w3 * $w4 )" | bc -l )

> <freeEnergyA>
-2247.47680743

> <freeEnergyF>
-2247.46520236

> <freeEnergyE>
-2247.47680743

> <freeEnergyC>
-1902.21716811

> <freeEnergyL>
-769.613224591

> <freeEnergyX>
-1980.7457079

> <freeEnergyZ>
-1902.19904493

> <freeEnergyD>
-1902.23688219

> <G_Propene>
-117.738020895

> <G_Ethene>
-78.4716324751

> <G_HoveydaProd>
-502.204109499

> <G_SIMes>
-924.27249048

> <G_HG_RuCl2_SIMes>
-2402.13728523

> <DG_referenceProductionBarrier>
0.01468968

> <DG_referencePrecursorStabilityHII>
-0.0052201621

> <DG_referencePrecursorStabilityHI>
0.0117775312

> <DDG_referencePrecursorStability>
.0169976933

> <DG_referenceSynt>
0.0226072217

> <hartree_to_kcalmol>
627.49467516

> <boltzmann_constant>
0.0000000000000000000000138066

> <avogadro_number>
602214000000000000000000

> <jmol_to_kcalmol>
0.00023901

> <temp>
313.15

> <kT>
.6223089948281258706000000000

> <magnitude1>
1.43290809

> <magnitude2>
2.86581618

> <magnitude3>
4.29872427

> <magnitude4>
5.73163236

> <DFT_IDENTIFIER>
1723566384136

> <DFT_MACHINE>
158.39.114.73

> <XTB_IDENTIFIER>
NREC

> <XTB_MACHINE>
NREC

> <DESCRIPTOR_1>
.00022158551743863295

> <DESCRIPTOR_2>
8.713472759078465832

> <DESCRIPTOR_3>
0.0000000001

> <WEIGHT_1>
.99945629813502304222

> <WEIGHT_2>
.99999979361283955264

> <WEIGHT_3>
.99999999995727181313

> <WEIGHT_4>
.99917280360654411026

> <FITNESS>
8.70175087896094614285

$$$$
