
  CDK     08132409383D

 59 62  0  0  0  0  0  0  0  0999 V2000
   -0.4842    3.6720   -2.4494 C   0  0  0  0  0  0  0  0  0  0  0  0
    0.5447    3.4326   -2.7738 H   0  0  0  0  0  0  0  0  0  0  0  0
   -0.6921    4.7454   -2.6570 H   0  0  0  0  0  0  0  0  0  0  0  0
   -1.1889    3.0831   -3.0673 H   0  0  0  0  0  0  0  0  0  0  0  0
   -0.6785    3.4174   -0.9705 C   0  0  0  0  0  0  0  0  0  0  0  0
   -1.7125    3.5214   -0.5908 H   0  0  0  0  0  0  0  0  0  0  0  0
    0.3335    3.7335   -0.0263 C   0  0  0  0  0  0  0  0  0  0  0  0
    1.3412    3.9135   -0.4421 H   0  0  0  0  0  0  0  0  0  0  0  0
   -0.0115    4.4023    1.2841 C   0  0  0  0  0  0  0  0  0  0  0  0
    0.8290    4.3956    2.0033 H   0  0  0  0  0  0  0  0  0  0  0  0
   -0.2659    5.4642    1.0762 H   0  0  0  0  0  0  0  0  0  0  0  0
   -0.8953    3.9198    1.7462 H   0  0  0  0  0  0  0  0  0  0  0  0
    1.1256    1.8035    0.9904 C   0  0  0  0  0  0  0  0  0  0  0  0
    0.8362    2.0109    2.0433 H   0  0  0  0  0  0  0  0  0  0  0  0
    2.2121    1.8404    0.7522 H   0  0  0  0  0  0  0  0  0  0  0  0
   -0.1165    1.3826   -0.2984 Ru  0  0  0  0  0  0  0  0  0  0  0  0
   -1.9950    1.5261    1.2106 Cl  0  0  0  0  0  0  0  0  0  0  0  0
    1.6606    1.2295   -1.9191 Cl  0  0  0  0  0  0  0  0  0  0  0  0
   -0.3174   -0.6140   -0.2167 C   0  0  0  0  0  0  0  0  0  0  0  0
    0.4485   -1.5249    0.4707 N   0  0  0  0  0  0  0  0  0  0  0  0
   -0.0865   -2.8089    0.3479 C   0  0  0  0  0  0  0  0  0  0  0  0
   -1.2005   -2.7008   -0.4366 C   0  0  0  0  0  0  0  0  0  0  0  0
   -1.3249   -1.3542   -0.7789 N   0  0  0  0  0  0  0  0  0  0  0  0
    1.5977   -1.2039    1.2733 C   0  0  0  0  0  0  0  0  0  0  0  0
    3.8219   -0.5312    2.8348 C   0  0  0  0  0  0  0  0  0  0  0  0
    1.3891   -0.8123    2.6132 C   0  0  0  0  0  0  0  0  0  0  0  0
    2.8832   -1.3145    0.7005 C   0  0  0  0  0  0  0  0  0  0  0  0
    3.9803   -0.9666    1.5054 C   0  0  0  0  0  0  0  0  0  0  0  0
    2.5248   -0.4724    3.3721 C   0  0  0  0  0  0  0  0  0  0  0  0
    4.9914   -1.0375    1.0752 H   0  0  0  0  0  0  0  0  0  0  0  0
    2.3853   -0.1583    4.4181 H   0  0  0  0  0  0  0  0  0  0  0  0
    3.0619   -1.7628   -0.7231 C   0  0  0  0  0  0  0  0  0  0  0  0
    2.6417   -0.9969   -1.4112 H   0  0  0  0  0  0  0  0  0  0  0  0
    2.5324   -2.7164   -0.9234 H   0  0  0  0  0  0  0  0  0  0  0  0
    4.1329   -1.9016   -0.9610 H   0  0  0  0  0  0  0  0  0  0  0  0
    0.0060   -0.7634    3.2026 C   0  0  0  0  0  0  0  0  0  0  0  0
    0.0454   -0.4945    4.2747 H   0  0  0  0  0  0  0  0  0  0  0  0
   -0.5040   -1.7449    3.1123 H   0  0  0  0  0  0  0  0  0  0  0  0
   -0.6396   -0.0261    2.6763 H   0  0  0  0  0  0  0  0  0  0  0  0
    5.0237   -0.1380    3.6570 C   0  0  0  0  0  0  0  0  0  0  0  0
    5.8151   -0.9136    3.6133 H   0  0  0  0  0  0  0  0  0  0  0  0
    4.7574    0.0227    4.7191 H   0  0  0  0  0  0  0  0  0  0  0  0
    5.4749    0.8025    3.2764 H   0  0  0  0  0  0  0  0  0  0  0  0
   -1.8987   -3.4640   -0.7807 H   0  0  0  0  0  0  0  0  0  0  0  0
    0.3842   -3.6711    0.8236 H   0  0  0  0  0  0  0  0  0  0  0  0
   -2.4634   -0.7230   -1.4826 C   0  0  0  0  0  0  0  0  0  0  0  0
   -1.9578    0.3393   -2.4679 C   0  0  0  0  0  0  0  0  0  0  0  0
   -1.4511   -0.4517   -3.6943 C   0  0  0  0  0  0  0  0  0  0  0  0
   -2.1909   -1.8202   -3.6370 C   0  0  0  0  0  0  0  0  0  0  0  0
   -3.1553   -1.7067   -2.4358 C   0  0  0  0  0  0  0  0  0  0  0  0
   -3.1273   -0.2935   -0.7070 H   0  0  0  0  0  0  0  0  0  0  0  0
   -1.1398    1.0034   -2.0910 H   0  0  0  0  0  0  0  0  0  0  0  0
   -2.8057    1.0096   -2.7110 H   0  0  0  0  0  0  0  0  0  0  0  0
   -1.6491    0.0988   -4.6336 H   0  0  0  0  0  0  0  0  0  0  0  0
   -0.3534   -0.5801   -3.6220 H   0  0  0  0  0  0  0  0  0  0  0  0
   -1.4674   -2.6441   -3.4723 H   0  0  0  0  0  0  0  0  0  0  0  0
   -2.7335   -2.0541   -4.5733 H   0  0  0  0  0  0  0  0  0  0  0  0
   -3.4265   -2.6757   -1.9740 H   0  0  0  0  0  0  0  0  0  0  0  0
   -4.1092   -1.2327   -2.7443 H   0  0  0  0  0  0  0  0  0  0  0  0
  1  2  1  0  0  0  0
  1  5  1  0  0  0  0
  3  1  1  0  0  0  0
  4  1  1  0  0  0  0
  5  6  1  0  0  0  0
  5 16  1  0  0  0  0
  5  7  1  0  0  0  0
  7  9  1  0  0  0  0
  7  8  1  0  0  0  0
  9 10  1  0  0  0  0
 11  9  1  0  0  0  0
 12  9  1  0  0  0  0
 13 14  1  0  0  0  0
 13 15  1  0  0  0  0
 13  7  1  0  0  0  0
 16 13  1  0  0  0  0
 16 17  1  0  0  0  0
 16 18  1  0  0  0  0
 19 20  1  0  0  0  0
 19 23  1  0  0  0  0
 20 21  1  0  0  0  0
 21 22  2  0  0  0  0
 22 23  1  0  0  0  0
 24 27  2  0  0  0  0
 27 28  1  0  0  0  0
 25 28  2  0  0  0  0
 25 29  1  0  0  0  0
 26 29  2  0  0  0  0
 24 26  1  0  0  0  0
 28 30  1  0  0  0  0
 29 31  1  0  0  0  0
 20 24  1  0  0  0  0
 32 33  1  0  0  0  0
 32 34  1  0  0  0  0
 32 35  1  0  0  0  0
 27 32  1  0  0  0  0
 36 37  1  0  0  0  0
 36 38  1  0  0  0  0
 36 39  1  0  0  0  0
 26 36  1  0  0  0  0
 40 41  1  0  0  0  0
 40 42  1  0  0  0  0
 40 43  1  0  0  0  0
 25 40  1  0  0  0  0
 22 44  1  0  0  0  0
 21 45  1  0  0  0  0
 46 51  1  0  0  0  0
 46 47  1  0  0  0  0
 46 50  1  0  0  0  0
 47 52  1  0  0  0  0
 47 53  1  0  0  0  0
 47 48  1  0  0  0  0
 48 54  1  0  0  0  0
 48 55  1  0  0  0  0
 48 49  1  0  0  0  0
 49 56  1  0  0  0  0
 49 57  1  0  0  0  0
 49 50  1  0  0  0  0
 50 58  1  0  0  0  0
 50 59  1  0  0  0  0
 23 46  1  0  0  0  0
 16 19  1  0  0  0  0
M  END
>  <DFT-ENERGY>
-1980.74570821

$$$$
