
  CDK     08152401023D

 78 84  0  0  0  0  0  0  0  0999 V2000
   -1.4207    1.5690   -3.8159 H   0  0  0  0  0  0  0  0  0  0  0  0
   -1.6217    2.7828   -3.8263 C   0  0  0  0  0  0  0  0  0  0  0  0
   -1.8168    2.7296   -4.9195 H   0  0  0  0  0  0  0  0  0  0  0  0
   -2.7004    2.8934   -2.7993 C   0  0  0  0  0  0  0  0  0  0  0  0
   -2.7820    3.8451   -2.2488 H   0  0  0  0  0  0  0  0  0  0  0  0
   -3.6631    2.4192   -3.0607 H   0  0  0  0  0  0  0  0  0  0  0  0
   -1.2226    1.6452   -2.0548 Ru  0  0  0  0  0  0  0  0  0  0  0  0
   -0.3273    3.1920   -3.2637 C   0  0  0  0  0  0  0  0  0  0  0  0
   -0.2702    4.1171   -2.6768 H   0  0  0  0  0  0  0  0  0  0  0  0
    0.5840    2.9167   -3.8215 H   0  0  0  0  0  0  0  0  0  0  0  0
   -0.7639    3.3627   -0.3687 Cl  0  0  0  0  0  0  0  0  0  0  0  0
   -2.2384   -0.3841   -2.9027 Cl  0  0  0  0  0  0  0  0  0  0  0  0
   -1.4058    0.7765   -0.2025 C   0  0  0  0  0  0  0  0  0  0  0  0
   -0.3782    0.3754    0.6013 N   0  0  0  0  0  0  0  0  0  0  0  0
   -0.8665   -0.5459    1.6608 C   0  0  0  0  0  0  0  0  0  0  0  0
   -2.3891   -0.2271    1.6770 C   0  0  0  0  0  0  0  0  0  0  0  0
   -2.5763    0.4113    0.3578 N   0  0  0  0  0  0  0  0  0  0  0  0
    1.0192    0.6664    0.4751 C   0  0  0  0  0  0  0  0  0  0  0  0
    3.8138    1.1187    0.3125 C   0  0  0  0  0  0  0  0  0  0  0  0
    1.7239    0.3136   -0.6994 C   0  0  0  0  0  0  0  0  0  0  0  0
    1.6926    1.2993    1.5498 C   0  0  0  0  0  0  0  0  0  0  0  0
    3.0806    1.4970    1.4479 C   0  0  0  0  0  0  0  0  0  0  0  0
    3.1075    0.5480   -0.7578 C   0  0  0  0  0  0  0  0  0  0  0  0
    3.5990    1.9935    2.2832 H   0  0  0  0  0  0  0  0  0  0  0  0
    3.6470    0.2690   -1.6765 H   0  0  0  0  0  0  0  0  0  0  0  0
   -0.4181   -0.2818    2.6342 H   0  0  0  0  0  0  0  0  0  0  0  0
   -2.9545   -1.1770    1.7163 H   0  0  0  0  0  0  0  0  0  0  0  0
    0.9670    1.8269    2.7588 C   0  0  0  0  0  0  0  0  0  0  0  0
    1.5642    2.6202    3.2465 H   0  0  0  0  0  0  0  0  0  0  0  0
    0.7799    1.0470    3.5285 H   0  0  0  0  0  0  0  0  0  0  0  0
   -0.0110    2.2555    2.4760 H   0  0  0  0  0  0  0  0  0  0  0  0
    1.0114   -0.2328   -1.8934 C   0  0  0  0  0  0  0  0  0  0  0  0
    0.2571   -1.0011   -1.6541 H   0  0  0  0  0  0  0  0  0  0  0  0
    1.7167   -0.6394   -2.6425 H   0  0  0  0  0  0  0  0  0  0  0  0
    0.4763    0.5979   -2.4595 H   0  0  0  0  0  0  0  0  0  0  0  0
    5.3073    1.3133    0.2464 C   0  0  0  0  0  0  0  0  0  0  0  0
    5.8433    0.4065    0.6009 H   0  0  0  0  0  0  0  0  0  0  0  0
    5.6362    2.1575    0.8834 H   0  0  0  0  0  0  0  0  0  0  0  0
    5.6475    1.5084   -0.7896 H   0  0  0  0  0  0  0  0  0  0  0  0
   -3.9069    0.6707   -0.2208 C   0  0  0  0  0  0  0  0  0  0  0  0
   -6.1804   -0.2617   -0.7362 C   0  0  0  0  0  0  0  0  0  0  0  0
   -5.8446    2.2388   -0.5235 C   0  0  0  0  0  0  0  0  0  0  0  0
   -6.8205    1.0713   -0.3264 C   0  0  0  0  0  0  0  0  0  0  0  0
   -4.5297    2.0012    0.2318 C   0  0  0  0  0  0  0  0  0  0  0  0
   -4.8619   -0.5055    0.0123 C   0  0  0  0  0  0  0  0  0  0  0  0
   -5.9736   -0.2525   -1.8294 H   0  0  0  0  0  0  0  0  0  0  0  0
   -5.6288    2.3558   -1.6093 H   0  0  0  0  0  0  0  0  0  0  0  0
   -7.1158    1.0206    0.7463 H   0  0  0  0  0  0  0  0  0  0  0  0
   -4.7307    1.9770    1.3228 H   0  0  0  0  0  0  0  0  0  0  0  0
   -5.0752   -0.6153    1.0995 H   0  0  0  0  0  0  0  0  0  0  0  0
   -3.7232    0.7324   -1.3098 H   0  0  0  0  0  0  0  0  0  0  0  0
   -6.8796   -1.1036   -0.5534 H   0  0  0  0  0  0  0  0  0  0  0  0
   -6.3042    3.1925   -0.1911 H   0  0  0  0  0  0  0  0  0  0  0  0
   -7.7536    1.2427   -0.9024 H   0  0  0  0  0  0  0  0  0  0  0  0
   -3.8060    2.8202    0.0455 H   0  0  0  0  0  0  0  0  0  0  0  0
   -4.3860   -1.4459   -0.3349 H   0  0  0  0  0  0  0  0  0  0  0  0
   -2.8026    0.6546    2.8399 C   0  0  0  0  0  0  0  0  0  0  0  0
   -3.4689    2.2356    5.0747 C   0  0  0  0  0  0  0  0  0  0  0  0
   -3.3890    0.0704    3.9763 C   0  0  0  0  0  0  0  0  0  0  0  0
   -2.5575    2.0415    2.8255 C   0  0  0  0  0  0  0  0  0  0  0  0
   -2.8890    2.8248    3.9393 C   0  0  0  0  0  0  0  0  0  0  0  0
   -3.7210    0.8558    5.0908 C   0  0  0  0  0  0  0  0  0  0  0  0
   -3.5900   -1.0124    3.9855 H   0  0  0  0  0  0  0  0  0  0  0  0
   -2.1248    2.5117    1.9283 H   0  0  0  0  0  0  0  0  0  0  0  0
   -2.6961    3.9073    3.9166 H   0  0  0  0  0  0  0  0  0  0  0  0
   -4.1846    0.3883    5.9716 H   0  0  0  0  0  0  0  0  0  0  0  0
   -3.7310    2.8543    5.9453 H   0  0  0  0  0  0  0  0  0  0  0  0
   -0.5363   -1.9872    1.3297 C   0  0  0  0  0  0  0  0  0  0  0  0
    0.0737   -4.6758    0.7458 C   0  0  0  0  0  0  0  0  0  0  0  0
   -1.0029   -2.5792    0.1374 C   0  0  0  0  0  0  0  0  0  0  0  0
    0.2381   -2.7511    2.2183 C   0  0  0  0  0  0  0  0  0  0  0  0
    0.5428   -4.0907    1.9304 C   0  0  0  0  0  0  0  0  0  0  0  0
   -0.6985   -3.9162   -0.1493 C   0  0  0  0  0  0  0  0  0  0  0  0
   -1.5968   -1.9912   -0.5805 H   0  0  0  0  0  0  0  0  0  0  0  0
    0.6102   -2.2875    3.1450 H   0  0  0  0  0  0  0  0  0  0  0  0
    1.1535   -4.6765    2.6326 H   0  0  0  0  0  0  0  0  0  0  0  0
   -1.0643   -4.3662   -1.0836 H   0  0  0  0  0  0  0  0  0  0  0  0
    0.3127   -5.7243    0.5159 H   0  0  0  0  0  0  0  0  0  0  0  0
  1  2  1  0  0  0  0
  1  7  1  0  0  0  0
  2  3  1  0  0  0  0
  2  4  1  0  0  0  0
  4  5  1  0  0  0  0
  4  6  1  0  0  0  0
  7  8  1  0  0  0  0
  4  7  1  0  0  0  0
  2  8  1  0  0  0  0
  8  9  1  0  0  0  0
  8 10  1  0  0  0  0
  7 11  1  0  0  0  0
  7 12  1  0  0  0  0
 13 14  1  0  0  0  0
 13 17  1  0  0  0  0
 14 15  1  0  0  0  0
 14 18  1  0  0  0  0
 15 26  1  0  0  0  0
 15 68  1  0  0  0  0
 16 17  1  0  0  0  0
 15 16  1  0  0  0  0
 16 27  1  0  0  0  0
 16 57  1  0  0  0  0
 17 40  1  0  0  0  0
 18 21  2  0  0  0  0
 18 20  1  0  0  0  0
 19 22  2  0  0  0  0
 19 23  1  0  0  0  0
 19 36  1  0  0  0  0
 20 23  2  0  0  0  0
 20 32  1  0  0  0  0
 21 22  1  0  0  0  0
 21 28  1  0  0  0  0
 22 24  1  0  0  0  0
 23 25  1  0  0  0  0
 28 29  1  0  0  0  0
 28 30  1  0  0  0  0
 28 31  1  0  0  0  0
 32 33  1  0  0  0  0
 32 34  1  0  0  0  0
 32 35  1  0  0  0  0
 36 37  1  0  0  0  0
 36 38  1  0  0  0  0
 36 39  1  0  0  0  0
 40 51  1  0  0  0  0
 40 44  1  0  0  0  0
 40 45  1  0  0  0  0
 41 46  1  0  0  0  0
 41 52  1  0  0  0  0
 41 43  1  0  0  0  0
 41 45  1  0  0  0  0
 42 47  1  0  0  0  0
 42 53  1  0  0  0  0
 42 44  1  0  0  0  0
 42 43  1  0  0  0  0
 43 48  1  0  0  0  0
 43 54  1  0  0  0  0
 44 49  1  0  0  0  0
 44 55  1  0  0  0  0
 45 50  1  0  0  0  0
 45 56  1  0  0  0  0
 57 60  2  0  0  0  0
 57 59  1  0  0  0  0
 58 61  2  0  0  0  0
 58 62  1  0  0  0  0
 58 67  1  0  0  0  0
 59 62  2  0  0  0  0
 59 63  1  0  0  0  0
 60 61  1  0  0  0  0
 60 64  1  0  0  0  0
 61 65  1  0  0  0  0
 62 66  1  0  0  0  0
 68 71  2  0  0  0  0
 68 70  1  0  0  0  0
 69 72  2  0  0  0  0
 69 73  1  0  0  0  0
 69 78  1  0  0  0  0
 70 73  2  0  0  0  0
 70 74  1  0  0  0  0
 71 72  1  0  0  0  0
 71 75  1  0  0  0  0
 72 76  1  0  0  0  0
 73 77  1  0  0  0  0
  7 13  1  0  0  0  0
M  END
>  <DFT-ENERGY>
-2404.25746461

$$$$
