
  CDK     08132405273D

 50 55  0  0  0  0  0  0  0  0999 V2000
    1.4211    1.2983   -2.8438 H   0  0  0  0  0  0  0  0  0  0  0  0
    2.6439    1.4336   -2.8210 C   0  0  0  0  0  0  0  0  0  0  0  0
    2.6469    1.4419   -3.9330 H   0  0  0  0  0  0  0  0  0  0  0  0
    2.7826    2.6616   -1.9829 C   0  0  0  0  0  0  0  0  0  0  0  0
    3.7027    2.7722   -1.3856 H   0  0  0  0  0  0  0  0  0  0  0  0
    2.3884    3.5964   -2.4176 H   0  0  0  0  0  0  0  0  0  0  0  0
    1.4106    1.4088   -1.0735 Ru  0  0  0  0  0  0  0  0  0  0  0  0
    2.9408    0.2354   -2.0235 C   0  0  0  0  0  0  0  0  0  0  0  0
    3.8387    0.2271   -1.3933 H   0  0  0  0  0  0  0  0  0  0  0  0
    2.6160   -0.7420   -2.4194 H   0  0  0  0  0  0  0  0  0  0  0  0
    2.9605    1.0609    0.7833 Cl  0  0  0  0  0  0  0  0  0  0  0  0
   -0.4695    2.4760   -2.1253 Cl  0  0  0  0  0  0  0  0  0  0  0  0
    0.4198    1.8385    0.6655 C   0  0  0  0  0  0  0  0  0  0  0  0
    0.2318    2.8566    1.5425 N   0  0  0  0  0  0  0  0  0  0  0  0
   -0.4748    2.4786    2.6646 N   0  0  0  0  0  0  0  0  0  0  0  0
   -0.7561    1.1968    2.4757 C   0  0  0  0  0  0  0  0  0  0  0  0
   -0.2468    0.7897    1.2459 N   0  0  0  0  0  0  0  0  0  0  0  0
    0.7817    4.1709    1.4667 C   0  0  0  0  0  0  0  0  0  0  0  0
    1.9120    6.7186    1.3406 C   0  0  0  0  0  0  0  0  0  0  0  0
    1.1361    4.8254    2.6568 C   0  0  0  0  0  0  0  0  0  0  0  0
    0.9668    4.7752    0.2143 C   0  0  0  0  0  0  0  0  0  0  0  0
    1.5428    6.0517    0.1625 C   0  0  0  0  0  0  0  0  0  0  0  0
    1.6999    6.1050    2.5855 C   0  0  0  0  0  0  0  0  0  0  0  0
    1.6900    6.5330   -0.8148 H   0  0  0  0  0  0  0  0  0  0  0  0
    1.9838    6.6224    3.5129 H   0  0  0  0  0  0  0  0  0  0  0  0
    0.6394    4.2547   -0.6950 H   0  0  0  0  0  0  0  0  0  0  0  0
    0.9699    4.3222    3.6172 H   0  0  0  0  0  0  0  0  0  0  0  0
    2.3602    7.7212    1.2903 H   0  0  0  0  0  0  0  0  0  0  0  0
   -0.0904   -0.5025    0.6363 C   0  0  0  0  0  0  0  0  0  0  0  0
    0.4204   -2.9073   -0.6757 C   0  0  0  0  0  0  0  0  0  0  0  0
   -0.5352   -0.6668   -0.6891 C   0  0  0  0  0  0  0  0  0  0  0  0
    0.6074   -1.5151    1.3131 C   0  0  0  0  0  0  0  0  0  0  0  0
    0.8497   -2.7233    0.6518 C   0  0  0  0  0  0  0  0  0  0  0  0
   -0.2674   -1.8851   -1.3411 C   0  0  0  0  0  0  0  0  0  0  0  0
   -1.1120    0.1301   -1.1794 H   0  0  0  0  0  0  0  0  0  0  0  0
    0.9779   -1.3344    2.3298 H   0  0  0  0  0  0  0  0  0  0  0  0
    1.4021   -3.5209    1.1680 H   0  0  0  0  0  0  0  0  0  0  0  0
   -0.6109   -2.0259   -2.3757 H   0  0  0  0  0  0  0  0  0  0  0  0
    0.6272   -3.8565   -1.1904 H   0  0  0  0  0  0  0  0  0  0  0  0
   -1.5174    0.3760    3.4194 C   0  0  0  0  0  0  0  0  0  0  0  0
   -2.9896   -1.1310    5.2876 C   0  0  0  0  0  0  0  0  0  0  0  0
   -1.5522    0.7613    4.7781 C   0  0  0  0  0  0  0  0  0  0  0  0
   -2.2376   -0.7648    3.0033 C   0  0  0  0  0  0  0  0  0  0  0  0
   -2.9664   -1.5118    3.9375 C   0  0  0  0  0  0  0  0  0  0  0  0
   -2.2842    0.0106    5.7031 C   0  0  0  0  0  0  0  0  0  0  0  0
   -0.9942    1.6545    5.0894 H   0  0  0  0  0  0  0  0  0  0  0  0
   -2.2418   -1.0609    1.9462 H   0  0  0  0  0  0  0  0  0  0  0  0
   -3.5265   -2.3968    3.6038 H   0  0  0  0  0  0  0  0  0  0  0  0
   -2.3017    0.3159    6.7590 H   0  0  0  0  0  0  0  0  0  0  0  0
   -3.5611   -1.7224    6.0174 H   0  0  0  0  0  0  0  0  0  0  0  0
  1  2  1  0  0  0  0
  1  7  1  0  0  0  0
  2  3  1  0  0  0  0
  2  4  1  0  0  0  0
  4  5  1  0  0  0  0
  4  6  1  0  0  0  0
  7  8  1  0  0  0  0
  4  7  1  0  0  0  0
  2  8  1  0  0  0  0
  8  9  1  0  0  0  0
  8 10  1  0  0  0  0
  7 11  1  0  0  0  0
  7 12  1  0  0  0  0
 13 14  1  0  0  0  0
 13 17  1  0  0  0  0
 14 15  1  0  0  0  0
 14 18  1  0  0  0  0
 16 17  1  0  0  0  0
 15 16  2  0  0  0  0
 16 40  1  0  0  0  0
 17 29  1  0  0  0  0
 18 21  2  0  0  0  0
 18 20  1  0  0  0  0
 19 22  2  0  0  0  0
 19 23  1  0  0  0  0
 19 28  1  0  0  0  0
 20 23  2  0  0  0  0
 20 27  1  0  0  0  0
 21 22  1  0  0  0  0
 21 26  1  0  0  0  0
 22 24  1  0  0  0  0
 23 25  1  0  0  0  0
 29 32  2  0  0  0  0
 29 31  1  0  0  0  0
 30 33  2  0  0  0  0
 30 34  1  0  0  0  0
 30 39  1  0  0  0  0
 31 34  2  0  0  0  0
 31 35  1  0  0  0  0
 32 33  1  0  0  0  0
 32 36  1  0  0  0  0
 33 37  1  0  0  0  0
 34 38  1  0  0  0  0
 40 43  2  0  0  0  0
 40 42  1  0  0  0  0
 41 44  2  0  0  0  0
 41 45  1  0  0  0  0
 41 50  1  0  0  0  0
 42 45  2  0  0  0  0
 42 46  1  0  0  0  0
 43 44  1  0  0  0  0
 43 47  1  0  0  0  0
 44 48  1  0  0  0  0
 45 49  1  0  0  0  0
  7 13  1  0  0  0  0
M  END
>  <DFT-ENERGY>
-2066.90692678

$$$$
