
  CDK     08132406373D

 50 54  0  0  0  0  0  0  0  0999 V2000
   -1.1741   -1.8608    0.2967 Ru  0  0  0  0  0  0  0  0  0  0  0  0
   -1.0479   -3.2864   -1.0364 C   0  0  0  0  0  0  0  0  0  0  0  0
   -1.3564   -3.0102   -2.0604 H   0  0  0  0  0  0  0  0  0  0  0  0
   -2.2503   -3.7820   -0.1345 C   0  0  0  0  0  0  0  0  0  0  0  0
   -3.1234   -3.8503   -0.8083 H   0  0  0  0  0  0  0  0  0  0  0  0
   -2.6938   -2.8401    1.0537 C   0  0  0  0  0  0  0  0  0  0  0  0
   -2.5211   -3.2914    2.0473 H   0  0  0  0  0  0  0  0  0  0  0  0
   -3.6810   -2.3712    0.8948 H   0  0  0  0  0  0  0  0  0  0  0  0
   -1.9372   -4.7416    0.3152 H   0  0  0  0  0  0  0  0  0  0  0  0
   -0.1530   -3.9282   -0.9516 H   0  0  0  0  0  0  0  0  0  0  0  0
   -2.6778   -0.6948   -1.1525 Cl  0  0  0  0  0  0  0  0  0  0  0  0
    0.3405   -3.0263    1.7391 Cl  0  0  0  0  0  0  0  0  0  0  0  0
   -0.2940   -0.0989    0.5498 C   0  0  0  0  0  0  0  0  0  0  0  0
   -0.5635    0.9525    1.3689 N   0  0  0  0  0  0  0  0  0  0  0  0
    0.1423    2.0888    1.0437 N   0  0  0  0  0  0  0  0  0  0  0  0
    0.8866    1.7363    0.0073 C   0  0  0  0  0  0  0  0  0  0  0  0
    0.6554    0.3933   -0.3074 N   0  0  0  0  0  0  0  0  0  0  0  0
   -1.5043    0.9533    2.4370 C   0  0  0  0  0  0  0  0  0  0  0  0
   -3.4037    0.9168    4.4788 C   0  0  0  0  0  0  0  0  0  0  0  0
   -2.1966    2.1329    2.7488 C   0  0  0  0  0  0  0  0  0  0  0  0
   -1.7259   -0.2385    3.1455 C   0  0  0  0  0  0  0  0  0  0  0  0
   -2.6921   -0.2500    4.1605 C   0  0  0  0  0  0  0  0  0  0  0  0
   -3.1455    2.1065    3.7783 C   0  0  0  0  0  0  0  0  0  0  0  0
   -2.8722   -1.1798    4.7183 H   0  0  0  0  0  0  0  0  0  0  0  0
   -3.6971    3.0242    4.0272 H   0  0  0  0  0  0  0  0  0  0  0  0
   -1.1210   -1.1335    2.9269 H   0  0  0  0  0  0  0  0  0  0  0  0
   -1.9871    3.0468    2.1791 H   0  0  0  0  0  0  0  0  0  0  0  0
   -4.1561    0.9025    5.2800 H   0  0  0  0  0  0  0  0  0  0  0  0
    1.1195   -0.3906   -1.4199 C   0  0  0  0  0  0  0  0  0  0  0  0
    1.9362   -1.9782   -3.5539 C   0  0  0  0  0  0  0  0  0  0  0  0
    1.8945   -1.5316   -1.1626 C   0  0  0  0  0  0  0  0  0  0  0  0
    0.7282   -0.0392   -2.7197 C   0  0  0  0  0  0  0  0  0  0  0  0
    1.1501   -0.8378   -3.7898 C   0  0  0  0  0  0  0  0  0  0  0  0
    2.3009   -2.3267   -2.2444 C   0  0  0  0  0  0  0  0  0  0  0  0
    2.1385   -1.8040   -0.1263 H   0  0  0  0  0  0  0  0  0  0  0  0
    0.0825    0.8345   -2.8751 H   0  0  0  0  0  0  0  0  0  0  0  0
    0.8471   -0.5768   -4.8134 H   0  0  0  0  0  0  0  0  0  0  0  0
    2.9012   -3.2278   -2.0561 H   0  0  0  0  0  0  0  0  0  0  0  0
    2.2574   -2.6052   -4.3980 H   0  0  0  0  0  0  0  0  0  0  0  0
    1.8147    2.6410   -0.6752 C   0  0  0  0  0  0  0  0  0  0  0  0
    3.5681    4.4615   -1.9180 C   0  0  0  0  0  0  0  0  0  0  0  0
    1.5710    4.0311   -0.6022 C   0  0  0  0  0  0  0  0  0  0  0  0
    2.9523    2.1725   -1.3681 C   0  0  0  0  0  0  0  0  0  0  0  0
    3.8195    3.0829   -1.9853 C   0  0  0  0  0  0  0  0  0  0  0  0
    2.4436    4.9320   -1.2200 C   0  0  0  0  0  0  0  0  0  0  0  0
    0.6866    4.3854   -0.0562 H   0  0  0  0  0  0  0  0  0  0  0  0
    3.1704    1.0979   -1.4128 H   0  0  0  0  0  0  0  0  0  0  0  0
    4.7041    2.7086   -2.5198 H   0  0  0  0  0  0  0  0  0  0  0  0
    2.2422    6.0111   -1.1608 H   0  0  0  0  0  0  0  0  0  0  0  0
    4.2505    5.1710   -2.4075 H   0  0  0  0  0  0  0  0  0  0  0  0
  2  4  1  0  0  0  0
  2  1  1  0  0  0  0
  2  3  1  0  0  0  0
  4  6  1  0  0  0  0
  4  5  1  0  0  0  0
  6  1  1  0  0  0  0
  6  8  1  0  0  0  0
  7  6  1  0  0  0  0
  9  4  1  0  0  0  0
 10  2  1  0  0  0  0
  1 11  1  0  0  0  0
  1 12  1  0  0  0  0
 13 14  1  0  0  0  0
 13 17  1  0  0  0  0
 14 15  1  0  0  0  0
 14 18  1  0  0  0  0
 16 17  1  0  0  0  0
 16 15  2  0  0  0  0
 16 40  1  0  0  0  0
 17 29  1  0  0  0  0
 18 21  2  0  0  0  0
 18 20  1  0  0  0  0
 19 22  2  0  0  0  0
 19 23  1  0  0  0  0
 19 28  1  0  0  0  0
 20 23  2  0  0  0  0
 20 27  1  0  0  0  0
 21 22  1  0  0  0  0
 21 26  1  0  0  0  0
 22 24  1  0  0  0  0
 23 25  1  0  0  0  0
 29 32  2  0  0  0  0
 29 31  1  0  0  0  0
 30 33  2  0  0  0  0
 30 34  1  0  0  0  0
 30 39  1  0  0  0  0
 31 34  2  0  0  0  0
 31 35  1  0  0  0  0
 32 33  1  0  0  0  0
 32 36  1  0  0  0  0
 33 37  1  0  0  0  0
 34 38  1  0  0  0  0
 40 43  2  0  0  0  0
 40 42  1  0  0  0  0
 41 44  2  0  0  0  0
 41 45  1  0  0  0  0
 41 50  1  0  0  0  0
 42 45  2  0  0  0  0
 42 46  1  0  0  0  0
 43 44  1  0  0  0  0
 43 47  1  0  0  0  0
 44 48  1  0  0  0  0
 45 49  1  0  0  0  0
  1 13  1  0  0  0  0
M  END
>  <DFT-ENERGY>
-2066.94245643

$$$$
