SIMesBenzyl_A2
  CDK     07312414133D

 69 73  0  0  0  0  0  0  0  0999 V2000
    0.5350    0.4528   -0.6468 Ru  0  0  0  0  0  0  0  0  0  0  0  0
    2.3128    0.4528   -2.0360 O   0  0  0  0  0  0  0  0  0  0  0  0
    1.7452    1.3861    0.3573 C   0  0  0  0  0  0  0  0  0  0  0  0
    1.5124    1.6790    1.3800 H   0  0  0  0  0  0  0  0  0  0  0  0
    2.5483   -0.3224   -3.2618 C   0  0  0  0  0  0  0  0  0  0  0  0
    2.9607    0.3774   -4.0195 H   0  0  0  0  0  0  0  0  0  0  0  0
    1.1272   -0.7621   -3.5850 C   0  0  0  0  0  0  0  0  0  0  0  0
    1.0643   -1.2612   -4.5559 H   0  0  0  0  0  0  0  0  0  0  0  0
    0.7446   -1.4622   -2.8155 H   0  0  0  0  0  0  0  0  0  0  0  0
    0.4467    0.1134   -3.6001 H   0  0  0  0  0  0  0  0  0  0  0  0
    3.4838   -1.4696   -2.9264 C   0  0  0  0  0  0  0  0  0  0  0  0
    3.1638   -1.9534   -1.9817 H   0  0  0  0  0  0  0  0  0  0  0  0
    3.4779   -2.2423   -3.7018 H   0  0  0  0  0  0  0  0  0  0  0  0
    4.5181   -1.1432   -2.7762 H   0  0  0  0  0  0  0  0  0  0  0  0
    3.3050    1.2512   -1.5310 C   0  0  0  0  0  0  0  0  0  0  0  0
    4.4741    1.5999   -2.1840 C   0  0  0  0  0  0  0  0  0  0  0  0
    4.6931    1.2498   -3.1902 H   0  0  0  0  0  0  0  0  0  0  0  0
    5.3753    2.4310   -1.5265 C   0  0  0  0  0  0  0  0  0  0  0  0
    6.2980    2.7188   -2.0355 H   0  0  0  0  0  0  0  0  0  0  0  0
    5.1253    2.9026   -0.2412 C   0  0  0  0  0  0  0  0  0  0  0  0
    5.8500    3.5476    0.2531 H   0  0  0  0  0  0  0  0  0  0  0  0
    3.9556    2.5423    0.4004 C   0  0  0  0  0  0  0  0  0  0  0  0
    3.7624    2.8969    1.4117 H   0  0  0  0  0  0  0  0  0  0  0  0
    3.0201    1.7269   -0.2390 C   0  0  0  0  0  0  0  0  0  0  0  0
    1.1369   -1.7473   -0.0844 Cl  0  0  0  0  0  0  0  0  0  0  0  0
   -0.2900    2.1627   -2.0092 Cl  0  0  0  0  0  0  0  0  0  0  0  0
   -1.0752    0.4289    0.4839 C   0  0  0  0  0  0  0  0  0  0  0  0
   -1.3585    0.8110    1.7837 N   0  0  0  0  0  0  0  0  0  0  0  0
   -2.7771    0.5193    2.2014 C   0  0  0  0  0  0  0  0  0  0  0  0
   -3.4045   -0.0871    0.9292 C   0  0  0  0  0  0  0  0  0  0  0  0
   -2.2656   -0.0740   -0.0461 N   0  0  0  0  0  0  0  0  0  0  0  0
   -0.5015    1.4430    2.7511 C   0  0  0  0  0  0  0  0  0  0  0  0
    0.9659    2.7025    4.7741 C   0  0  0  0  0  0  0  0  0  0  0  0
   -0.3970    2.8552    2.7621 C   0  0  0  0  0  0  0  0  0  0  0  0
    0.1947    0.6557    3.6990 C   0  0  0  0  0  0  0  0  0  0  0  0
    0.9116    1.3020    4.7129 C   0  0  0  0  0  0  0  0  0  0  0  0
    0.3290    3.4704    3.7889 C   0  0  0  0  0  0  0  0  0  0  0  0
    1.4387    0.7094    5.4579 H   0  0  0  0  0  0  0  0  0  0  0  0
    0.4015    4.5555    3.8169 H   0  0  0  0  0  0  0  0  0  0  0  0
   -3.2802    1.4525    2.5229 H   0  0  0  0  0  0  0  0  0  0  0  0
   -2.7852   -0.1847    3.0570 H   0  0  0  0  0  0  0  0  0  0  0  0
   -3.7665   -1.1245    1.0859 H   0  0  0  0  0  0  0  0  0  0  0  0
   -4.2509    0.5149    0.5436 H   0  0  0  0  0  0  0  0  0  0  0  0
    0.1957   -0.8310    3.5941 C   0  0  0  0  0  0  0  0  0  0  0  0
    0.5014   -1.1509    2.5742 H   0  0  0  0  0  0  0  0  0  0  0  0
   -0.7995   -1.2597    3.7700 H   0  0  0  0  0  0  0  0  0  0  0  0
    0.8906   -1.3115    4.2939 H   0  0  0  0  0  0  0  0  0  0  0  0
   -1.0126    3.6638    1.6705 C   0  0  0  0  0  0  0  0  0  0  0  0
   -0.7297    4.7230    1.7067 H   0  0  0  0  0  0  0  0  0  0  0  0
   -2.1098    3.6148    1.6908 H   0  0  0  0  0  0  0  0  0  0  0  0
   -0.7009    3.2846    0.6722 H   0  0  0  0  0  0  0  0  0  0  0  0
    1.7226    3.3646    5.8791 C   0  0  0  0  0  0  0  0  0  0  0  0
    1.3865    3.0107    6.8644 H   0  0  0  0  0  0  0  0  0  0  0  0
    1.6149    4.4571    5.8761 H   0  0  0  0  0  0  0  0  0  0  0  0
    2.7986    3.1462    5.8077 H   0  0  0  0  0  0  0  0  0  0  0  0
   -2.4921   -0.5677   -1.4218 C   0  0  0  0  0  0  0  0  0  0  0  0
   -1.5365   -0.5341   -2.0140 H   0  0  0  0  0  0  0  0  0  0  0  0
   -3.1818    0.1410   -1.9437 H   0  0  0  0  0  0  0  0  0  0  0  0
   -3.0453   -1.9766   -1.4250 C   0  0  0  0  0  0  0  0  0  0  0  0
   -4.0546   -4.5880   -1.4596 C   0  0  0  0  0  0  0  0  0  0  0  0
   -2.2578   -3.0403   -0.9617 C   0  0  0  0  0  0  0  0  0  0  0  0
   -4.3397   -2.2223   -1.9037 C   0  0  0  0  0  0  0  0  0  0  0  0
   -4.8401   -3.5277   -1.9221 C   0  0  0  0  0  0  0  0  0  0  0  0
   -2.7639   -4.3421   -0.9789 C   0  0  0  0  0  0  0  0  0  0  0  0
   -1.2461   -2.8460   -0.5866 H   0  0  0  0  0  0  0  0  0  0  0  0
   -4.9567   -1.4026   -2.2667 H   0  0  0  0  0  0  0  0  0  0  0  0
   -5.8436   -3.7179   -2.2989 H   0  0  0  0  0  0  0  0  0  0  0  0
   -2.1483   -5.1660   -0.6195 H   0  0  0  0  0  0  0  0  0  0  0  0
   -4.4456   -5.6036   -1.4755 H   0  0  0  0  0  0  0  0  0  0  0  0
  1  2  1  0  0  0  0
  1  3  2  0  0  0  0
  3  4  1  0  0  0  0
  2  5  1  0  0  0  0
  5  6  1  0  0  0  0
  5  7  1  0  0  0  0
  7  8  1  0  0  0  0
  7  9  1  0  0  0  0
  7 10  1  0  0  0  0
  5 11  1  0  0  0  0
 11 12  1  0  0  0  0
 11 13  1  0  0  0  0
 11 14  1  0  0  0  0
  2 15  1  0  0  0  0
 15 24  1  0  0  0  0
 15 16  2  0  0  0  0
 16 17  1  0  0  0  0
 16 18  1  0  0  0  0
 18 19  1  0  0  0  0
 18 20  2  0  0  0  0
 20 21  1  0  0  0  0
 20 22  1  0  0  0  0
 22 24  2  0  0  0  0
 22 23  1  0  0  0  0
  3 24  1  0  0  0  0
  1 25  1  0  0  0  0
  1 26  1  0  0  0  0
 27 28  1  0  0  0  0
 27 31  1  0  0  0  0
 28 29  1  0  0  0  0
 30 31  1  0  0  0  0
 32 35  2  0  0  0  0
 35 36  1  0  0  0  0
 33 36  2  0  0  0  0
 33 37  1  0  0  0  0
 34 37  2  0  0  0  0
 32 34  1  0  0  0  0
 36 38  1  0  0  0  0
 37 39  1  0  0  0  0
 28 32  1  0  0  0  0
 29 30  1  0  0  0  0
 29 40  1  0  0  0  0
 29 41  1  0  0  0  0
 30 42  1  0  0  0  0
 30 43  1  0  0  0  0
 44 45  1  0  0  0  0
 44 46  1  0  0  0  0
 44 47  1  0  0  0  0
 35 44  1  0  0  0  0
 48 49  1  0  0  0  0
 48 50  1  0  0  0  0
 48 51  1  0  0  0  0
 34 48  1  0  0  0  0
 52 53  1  0  0  0  0
 52 54  1  0  0  0  0
 52 55  1  0  0  0  0
 33 52  1  0  0  0  0
 56 57  1  0  0  0  0
 56 58  1  0  0  0  0
 31 56  1  0  0  0  0
 59 62  2  0  0  0  0
 62 63  1  0  0  0  0
 60 63  2  0  0  0  0
 60 64  1  0  0  0  0
 61 64  2  0  0  0  0
 59 61  1  0  0  0  0
 63 67  1  0  0  0  0
 64 68  1  0  0  0  0
 60 69  1  0  0  0  0
 61 65  1  0  0  0  0
 62 66  1  0  0  0  0
 56 59  1  0  0  0  0
  1 27  1  0  0  0  0
M  END
> <FrozenCore-PM6_ENERGY>
81.725

> <RMSD_CONF_CG-CS>
0.281352

> <RMSD_CONF_GO-CS>
0.000000

> <UID>


> <DESCRIPTOR_DEFINITION_1>
desc1=( echo "1 * ( e( $hartree_to_kcalmol * ( ( $freeEnergyZ - $freeEnergyD ) - ( $freeEnergyX + 2*$G_Ethene - $freeEnergyD - 2*$G_Propene ) - $DDG_reference_HGII ) / $kT ) ) " | bc -l )

> <DESCRIPTOR_DEFINITION_2>
desc1=( echo "1 * ( e( $hartree_to_kcalmol * ( ( $freeEnergyZ - $freeEnergyD ) - ( $freeEnergyX + 2*$G_Ethene - $freeEnergyD - 2*$G_Propene ) - $DDG_reference_HGII ) / $kT ) ) " | bc -l )

> <DESCRIPTOR_DEFINITION_3>
desc1=( echo "1 * ( e( $hartree_to_kcalmol * ( ( $freeEnergyZ - $freeEnergyD ) - ( $freeEnergyX + 2*$G_Ethene - $freeEnergyD - 2*$G_Propene ) - $DDG_reference_HGII ) / $kT ) ) " | bc -l )

> <WEIGHT_DEFINITION_1>
w1=$( echo "1 / ( 1 + e( $hartree_to_kcalmol * ( ( ( $freeEnergyX + 2*$G_Ethene - $freeEnergyD - 2*$G_Propene ) ) - ( $DG_referenceProductionBarrier + $magnitude4 ) ) / $kT ) )" | bc -l )

> <WEIGHT_DEFINITION_2>
w1=$( echo "1 / ( 1 + e( $hartree_to_kcalmol * ( ( ( $freeEnergyX + 2*$G_Ethene - $freeEnergyD - 2*$G_Propene ) ) - ( $DG_referenceProductionBarrier + $magnitude4 ) ) / $kT ) )" | bc -l )

> <WEIGHT_DEFINITION_3>
w1=$( echo "1 / ( 1 + e( $hartree_to_kcalmol * ( ( ( $freeEnergyX + 2*$G_Ethene - $freeEnergyD - 2*$G_Propene ) ) - ( $DG_referenceProductionBarrier + $magnitude4 ) ) / $kT ) )" | bc -l )

> <WEIGHT_DEFINITION_4>
w1=$( echo "1 / ( 1 + e( $hartree_to_kcalmol * ( ( ( $freeEnergyX + 2*$G_Ethene - $freeEnergyD - 2*$G_Propene ) ) - ( $DG_referenceProductionBarrier + $magnitude4 ) ) / $kT ) )" | bc -l )

> <CALCULATION_OF_OVERALL_FITNESS>
fitness=$( echo "( $desc1 + $desc2 + $desc3 ) * ( $w1 * $w2 * $w3 * $w4 )" | bc -l )

> <freeEnergyA>
-2323.60645701

> <freeEnergyF>
-2323.59487277

> <freeEnergyE>
-2323.60645701

> <freeEnergyC>
-1978.34571962

> <freeEnergyL>
-845.741177505

> <freeEnergyX>
-2056.87743022

> <freeEnergyZ>
-1978.32632078

> <freeEnergyD>
-1978.36863969

> <G_Propene>
-117.738020895

> <G_Ethene>
-78.4716324751

> <G_HoveydaProd>
-502.204109499

> <G_SIMes>
-924.27249048

> <G_HG_RuCl2_SIMes>
-2402.13728523

> <DG_referenceProductionBarrier>
0.01468968

> <DG_referencePrecursorStabilityHII>
-0.0052201621

> <DG_referencePrecursorStabilityHI>
0.0117775312

> <DDG_referencePrecursorStability>
.0169976933

> <DG_referenceSynt>
0.0226072217

> <hartree_to_kcalmol>
627.49467516

> <boltzmann_constant>
0.0000000000000000000000138066

> <avogadro_number>
602214000000000000000000

> <jmol_to_kcalmol>
0.00023901

> <temp>
313.15

> <kT>
.6223089948281258706000000000

> <magnitude1>
1.43290809

> <magnitude2>
2.86581618

> <magnitude3>
4.29872427

> <magnitude4>
5.73163236

> <DFT_IDENTIFIER>
1722462742465

> <DFT_MACHINE>
158.36.42.38

> <XTB_IDENTIFIER>
NREC

> <XTB_MACHINE>
NREC

> <DESCRIPTOR_1>
.01962051312811850745

> <DESCRIPTOR_2>
11.503609007337151032

> <DESCRIPTOR_3>
0.0000000001

> <WEIGHT_1>
.99943667621168067830

> <WEIGHT_2>
.99999937548609975947

> <WEIGHT_3>
.99999999999227814551

> <WEIGHT_4>
.99915526061316940805

> <FITNESS>
11.50700238250692371234

$$$$
