
  CDK     07312423053D

 55 58  0  0  0  0  0  0  0  0999 V2000
   -1.7587    0.1551    0.2927 Ru  0  0  0  0  0  0  0  0  0  0  0  0
   -3.3119    1.3532    0.3504 C   0  0  0  0  0  0  0  0  0  0  0  0
   -3.0751    2.4082    0.5783 H   0  0  0  0  0  0  0  0  0  0  0  0
   -3.5218    0.4750    1.6516 C   0  0  0  0  0  0  0  0  0  0  0  0
   -3.4669    1.1647    2.5131 H   0  0  0  0  0  0  0  0  0  0  0  0
   -2.4691   -0.6738    1.9164 C   0  0  0  0  0  0  0  0  0  0  0  0
   -2.8860   -1.6881    1.7821 H   0  0  0  0  0  0  0  0  0  0  0  0
   -1.8614   -0.5123    2.8247 H   0  0  0  0  0  0  0  0  0  0  0  0
   -4.4981   -0.0266    1.5231 H   0  0  0  0  0  0  0  0  0  0  0  0
   -4.0903    1.1807   -0.4139 H   0  0  0  0  0  0  0  0  0  0  0  0
   -0.5608    1.7296    1.6314 Cl  0  0  0  0  0  0  0  0  0  0  0  0
   -3.0809   -1.3047   -1.0683 Cl  0  0  0  0  0  0  0  0  0  0  0  0
   -0.2074   -0.1831   -0.9075 C   0  0  0  0  0  0  0  0  0  0  0  0
    0.8737   -0.9179   -0.5599 N   0  0  0  0  0  0  0  0  0  0  0  0
    1.7864   -1.1014   -1.7069 C   0  0  0  0  0  0  0  0  0  0  0  0
    1.2913   -0.0185   -2.6810 C   0  0  0  0  0  0  0  0  0  0  0  0
   -0.0658    0.2509   -2.1781 N   0  0  0  0  0  0  0  0  0  0  0  0
    0.9884   -1.6132    0.6925 C   0  0  0  0  0  0  0  0  0  0  0  0
    1.1491   -2.8911    3.1886 C   0  0  0  0  0  0  0  0  0  0  0  0
    0.3172   -2.8442    0.8736 C   0  0  0  0  0  0  0  0  0  0  0  0
    1.7949   -1.0422    1.7054 C   0  0  0  0  0  0  0  0  0  0  0  0
    1.8526   -1.6965    2.9451 C   0  0  0  0  0  0  0  0  0  0  0  0
    0.4051   -3.4544    2.1390 C   0  0  0  0  0  0  0  0  0  0  0  0
    2.4644   -1.2545    3.7467 H   0  0  0  0  0  0  0  0  0  0  0  0
   -0.1187   -4.4096    2.2996 H   0  0  0  0  0  0  0  0  0  0  0  0
    1.6744   -2.1263   -2.1227 H   0  0  0  0  0  0  0  0  0  0  0  0
    2.8386   -0.9607   -1.3962 H   0  0  0  0  0  0  0  0  0  0  0  0
    1.9027    0.9094   -2.6339 H   0  0  0  0  0  0  0  0  0  0  0  0
    1.2547   -0.3635   -3.7327 H   0  0  0  0  0  0  0  0  0  0  0  0
    2.5545    0.2334    1.4624 C   0  0  0  0  0  0  0  0  0  0  0  0
    1.8493    1.0591    1.2358 H   0  0  0  0  0  0  0  0  0  0  0  0
    3.2572    0.1385    0.6082 H   0  0  0  0  0  0  0  0  0  0  0  0
    3.1443    0.5150    2.3546 H   0  0  0  0  0  0  0  0  0  0  0  0
   -0.4511   -3.5006   -0.2418 C   0  0  0  0  0  0  0  0  0  0  0  0
   -0.7580   -4.5231    0.0481 H   0  0  0  0  0  0  0  0  0  0  0  0
    0.1593   -3.5812   -1.1648 H   0  0  0  0  0  0  0  0  0  0  0  0
   -1.3649   -2.9286   -0.5135 H   0  0  0  0  0  0  0  0  0  0  0  0
    1.1978   -3.5447    4.5466 C   0  0  0  0  0  0  0  0  0  0  0  0
    2.2297   -3.5650    4.9511 H   0  0  0  0  0  0  0  0  0  0  0  0
    0.8176   -4.5837    4.5144 H   0  0  0  0  0  0  0  0  0  0  0  0
    0.5768   -2.9838    5.2771 H   0  0  0  0  0  0  0  0  0  0  0  0
   -0.9503    1.2115   -2.8245 C   0  0  0  0  0  0  0  0  0  0  0  0
   -1.9137    1.1637   -2.2745 H   0  0  0  0  0  0  0  0  0  0  0  0
   -1.1550    0.8610   -3.8573 H   0  0  0  0  0  0  0  0  0  0  0  0
   -0.3810    2.6177   -2.8531 C   0  0  0  0  0  0  0  0  0  0  0  0
    0.6855    5.2260   -2.9125 C   0  0  0  0  0  0  0  0  0  0  0  0
    0.0037    3.2539   -1.6557 C   0  0  0  0  0  0  0  0  0  0  0  0
   -0.2226    3.2958   -4.0744 C   0  0  0  0  0  0  0  0  0  0  0  0
    0.3045    4.5964   -4.1063 C   0  0  0  0  0  0  0  0  0  0  0  0
    0.5338    4.5509   -1.6900 C   0  0  0  0  0  0  0  0  0  0  0  0
   -0.1143    2.7402   -0.6870 H   0  0  0  0  0  0  0  0  0  0  0  0
   -0.5186    2.7992   -5.0120 H   0  0  0  0  0  0  0  0  0  0  0  0
    0.4215    5.1166   -5.0682 H   0  0  0  0  0  0  0  0  0  0  0  0
    0.8257    5.0384   -0.7483 H   0  0  0  0  0  0  0  0  0  0  0  0
    1.1011    6.2441   -2.9341 H   0  0  0  0  0  0  0  0  0  0  0  0
  2  4  1  0  0  0  0
  2  1  1  0  0  0  0
  2  3  1  0  0  0  0
  4  6  1  0  0  0  0
  4  5  1  0  0  0  0
  6  1  1  0  0  0  0
  6  8  1  0  0  0  0
  7  6  1  0  0  0  0
  9  4  1  0  0  0  0
 10  2  1  0  0  0  0
  1 11  1  0  0  0  0
  1 12  1  0  0  0  0
 13 14  1  0  0  0  0
 13 17  1  0  0  0  0
 14 15  1  0  0  0  0
 16 17  1  0  0  0  0
 18 21  2  0  0  0  0
 21 22  1  0  0  0  0
 19 22  2  0  0  0  0
 19 23  1  0  0  0  0
 20 23  2  0  0  0  0
 18 20  1  0  0  0  0
 22 24  1  0  0  0  0
 23 25  1  0  0  0  0
 14 18  1  0  0  0  0
 15 16  1  0  0  0  0
 15 26  1  0  0  0  0
 15 27  1  0  0  0  0
 16 28  1  0  0  0  0
 16 29  1  0  0  0  0
 30 31  1  0  0  0  0
 30 32  1  0  0  0  0
 30 33  1  0  0  0  0
 21 30  1  0  0  0  0
 34 35  1  0  0  0  0
 34 36  1  0  0  0  0
 34 37  1  0  0  0  0
 20 34  1  0  0  0  0
 38 39  1  0  0  0  0
 38 40  1  0  0  0  0
 38 41  1  0  0  0  0
 19 38  1  0  0  0  0
 42 43  1  0  0  0  0
 42 44  1  0  0  0  0
 17 42  1  0  0  0  0
 45 48  2  0  0  0  0
 48 49  1  0  0  0  0
 46 49  2  0  0  0  0
 46 50  1  0  0  0  0
 47 50  2  0  0  0  0
 45 47  1  0  0  0  0
 49 53  1  0  0  0  0
 50 54  1  0  0  0  0
 46 55  1  0  0  0  0
 47 51  1  0  0  0  0
 48 52  1  0  0  0  0
 42 45  1  0  0  0  0
  1 13  1  0  0  0  0
M  END
>  <DFT-ENERGY>
-1978.36863975

$$$$
