
  CDK     04192416023D

 65 68  0  0  0  0  0  0  0  0999 V2000
    1.7621   -0.0681    2.8271 C   0  0  0  0  0  0  0  0  0  0  0  0
    2.0957   -1.1199    2.7860 H   0  0  0  0  0  0  0  0  0  0  0  0
    2.2480    0.4474    3.6856 H   0  0  0  0  0  0  0  0  0  0  0  0
    2.1242    0.4460    1.9112 H   0  0  0  0  0  0  0  0  0  0  0  0
    0.2632    0.0534    2.9741 C   0  0  0  0  0  0  0  0  0  0  0  0
   -0.1187    1.0820    3.1119 H   0  0  0  0  0  0  0  0  0  0  0  0
   -0.5876   -0.9762    3.4589 C   0  0  0  0  0  0  0  0  0  0  0  0
   -0.1438   -1.9799    3.5781 H   0  0  0  0  0  0  0  0  0  0  0  0
   -1.7750   -0.6213    4.3262 C   0  0  0  0  0  0  0  0  0  0  0  0
   -2.5061   -1.4472    4.4126 H   0  0  0  0  0  0  0  0  0  0  0  0
   -1.4068   -0.3929    5.3497 H   0  0  0  0  0  0  0  0  0  0  0  0
   -2.2880    0.2806    3.9381 H   0  0  0  0  0  0  0  0  0  0  0  0
   -1.9702   -1.6348    1.7152 C   0  0  0  0  0  0  0  0  0  0  0  0
   -2.9423   -1.1538    1.9563 H   0  0  0  0  0  0  0  0  0  0  0  0
   -1.8980   -2.7393    1.8248 H   0  0  0  0  0  0  0  0  0  0  0  0
   -0.5505   -0.6623    1.1018 Ru  0  0  0  0  0  0  0  0  0  0  0  0
   -1.9025    1.3287    1.2428 Cl  0  0  0  0  0  0  0  0  0  0  0  0
    0.7731   -2.6735    1.0676 Cl  0  0  0  0  0  0  0  0  0  0  0  0
    0.4301    0.0525   -1.6802 N   0  0  0  0  0  0  0  0  0  0  0  0
   -1.4692   -0.9918   -1.8228 N   0  0  0  0  0  0  0  0  0  0  0  0
   -0.5424   -0.5408   -0.9161 C   0  0  0  0  0  0  0  0  0  0  0  0
    0.1183   -0.0231   -3.0396 C   0  0  0  0  0  0  0  0  0  0  0  0
    0.7741    0.4017   -3.8021 H   0  0  0  0  0  0  0  0  0  0  0  0
   -1.0751   -0.6846   -3.1287 C   0  0  0  0  0  0  0  0  0  0  0  0
   -1.6848   -0.9701   -3.9880 H   0  0  0  0  0  0  0  0  0  0  0  0
    1.6170    0.6407   -1.1125 C   0  0  0  0  0  0  0  0  0  0  0  0
    1.5791    1.9942   -0.7093 C   0  0  0  0  0  0  0  0  0  0  0  0
    2.7344    2.5187   -0.1009 C   0  0  0  0  0  0  0  0  0  0  0  0
    2.7242    3.5691    0.2284 H   0  0  0  0  0  0  0  0  0  0  0  0
    3.8954    1.7473    0.0821 C   0  0  0  0  0  0  0  0  0  0  0  0
    3.9056    0.4239   -0.3960 C   0  0  0  0  0  0  0  0  0  0  0  0
    4.8184   -0.1828   -0.2932 H   0  0  0  0  0  0  0  0  0  0  0  0
    2.7804   -0.1551   -1.0065 C   0  0  0  0  0  0  0  0  0  0  0  0
    0.3626    2.8474   -0.9375 C   0  0  0  0  0  0  0  0  0  0  0  0
   -0.4722    2.5369   -0.2712 H   0  0  0  0  0  0  0  0  0  0  0  0
   -0.0059    2.7563   -1.9794 H   0  0  0  0  0  0  0  0  0  0  0  0
    0.5900    3.9115   -0.7400 H   0  0  0  0  0  0  0  0  0  0  0  0
    5.1004    2.3187    0.7857 C   0  0  0  0  0  0  0  0  0  0  0  0
    6.0451    1.9244    0.3625 H   0  0  0  0  0  0  0  0  0  0  0  0
    5.0890    2.0483    1.8634 H   0  0  0  0  0  0  0  0  0  0  0  0
    5.1243    3.4238    0.7241 H   0  0  0  0  0  0  0  0  0  0  0  0
    2.8103   -1.5671   -1.5210 C   0  0  0  0  0  0  0  0  0  0  0  0
    2.4415   -1.6316   -2.5646 H   0  0  0  0  0  0  0  0  0  0  0  0
    2.1570   -2.2130   -0.8951 H   0  0  0  0  0  0  0  0  0  0  0  0
    3.8381   -1.9739   -1.4883 H   0  0  0  0  0  0  0  0  0  0  0  0
   -2.6836   -1.6856   -1.4794 C   0  0  0  0  0  0  0  0  0  0  0  0
   -2.6375   -3.0850   -1.3116 C   0  0  0  0  0  0  0  0  0  0  0  0
   -3.8302   -3.7308   -0.9362 C   0  0  0  0  0  0  0  0  0  0  0  0
   -3.8158   -4.8226   -0.7952 H   0  0  0  0  0  0  0  0  0  0  0  0
   -5.0301   -3.0248   -0.7456 C   0  0  0  0  0  0  0  0  0  0  0  0
   -5.0341   -1.6347   -0.9663 C   0  0  0  0  0  0  0  0  0  0  0  0
   -5.9711   -1.0690   -0.8460 H   0  0  0  0  0  0  0  0  0  0  0  0
   -3.8732   -0.9377   -1.3399 C   0  0  0  0  0  0  0  0  0  0  0  0
   -1.3626   -3.8547   -1.5168 C   0  0  0  0  0  0  0  0  0  0  0  0
   -1.5557   -4.9436   -1.5085 H   0  0  0  0  0  0  0  0  0  0  0  0
   -0.6244   -3.6226   -0.7170 H   0  0  0  0  0  0  0  0  0  0  0  0
   -0.8801   -3.5939   -2.4809 H   0  0  0  0  0  0  0  0  0  0  0  0
   -6.2890   -3.7334   -0.3119 C   0  0  0  0  0  0  0  0  0  0  0  0
   -7.1629   -3.4132   -0.9144 H   0  0  0  0  0  0  0  0  0  0  0  0
   -6.5279   -3.5039    0.7482 H   0  0  0  0  0  0  0  0  0  0  0  0
   -6.1912   -4.8322   -0.4018 H   0  0  0  0  0  0  0  0  0  0  0  0
   -3.8891    0.5486   -1.5664 C   0  0  0  0  0  0  0  0  0  0  0  0
   -3.4664    0.8178   -2.5559 H   0  0  0  0  0  0  0  0  0  0  0  0
   -3.2734    1.0591   -0.7941 H   0  0  0  0  0  0  0  0  0  0  0  0
   -4.9206    0.9434   -1.5111 H   0  0  0  0  0  0  0  0  0  0  0  0
  1  2  1  0  0  0  0
  1  5  1  0  0  0  0
  1  3  1  0  0  0  0
  1  4  1  0  0  0  0
  5  6  1  0  0  0  0
  5 16  1  0  0  0  0
  5  7  1  0  0  0  0
  7  9  1  0  0  0  0
  7  8  1  0  0  0  0
  9 10  1  0  0  0  0
  9 11  1  0  0  0  0
  9 12  1  0  0  0  0
 13 14  1  0  0  0  0
 13 15  1  0  0  0  0
  7 13  1  0  0  0  0
 13 16  1  0  0  0  0
 16 17  1  0  0  0  0
 16 18  1  0  0  0  0
 19 21  1  0  0  0  0
 20 21  1  0  0  0  0
 19 22  1  0  0  0  0
 22 23  1  0  0  0  0
 20 24  1  0  0  0  0
 24 25  1  0  0  0  0
 19 26  1  0  0  0  0
 26 27  2  0  0  0  0
 27 28  1  0  0  0  0
 28 29  1  0  0  0  0
 28 30  2  0  0  0  0
 30 31  1  0  0  0  0
 31 32  1  0  0  0  0
 26 33  1  0  0  0  0
 27 34  1  0  0  0  0
 34 35  1  0  0  0  0
 34 36  1  0  0  0  0
 34 37  1  0  0  0  0
 30 38  1  0  0  0  0
 38 39  1  0  0  0  0
 38 40  1  0  0  0  0
 38 41  1  0  0  0  0
 33 42  1  0  0  0  0
 42 43  1  0  0  0  0
 42 44  1  0  0  0  0
 42 45  1  0  0  0  0
 20 46  1  0  0  0  0
 46 47  1  0  0  0  0
 47 48  2  0  0  0  0
 48 49  1  0  0  0  0
 48 50  1  0  0  0  0
 50 51  2  0  0  0  0
 51 52  1  0  0  0  0
 46 53  2  0  0  0  0
 47 54  1  0  0  0  0
 54 55  1  0  0  0  0
 54 56  1  0  0  0  0
 54 57  1  0  0  0  0
 50 58  1  0  0  0  0
 58 59  1  0  0  0  0
 58 60  1  0  0  0  0
 58 61  1  0  0  0  0
 53 62  1  0  0  0  0
 62 63  1  0  0  0  0
 62 64  1  0  0  0  0
 62 65  1  0  0  0  0
 22 24  2  0  0  0  0
 31 33  2  0  0  0  0
 51 53  1  0  0  0  0
 16 21  1  0  0  0  0
M  END
>  <DFT-ENERGY>
-2134.22384744

$$$$
